
     RDKit          3D

 38 40  0  0  0  0  0  0  0  0999 V2000
    6.5278   -1.7153   -0.3782 C   0  0  0  0  0  0  0  0  0  0  0  0
    7.0003   -1.2572    0.8436 C   0  0  0  0  0  0  0  0  0  0  0  0
    6.3564   -0.2027    1.4809 C   0  0  0  0  0  0  0  0  0  0  0  0
    5.4135   -1.1221   -0.9596 C   0  0  0  0  0  0  0  0  0  0  0  0
   -3.5137   -0.3442    0.1484 C   0  0  0  0  0  0  0  0  0  0  0  0
   -2.1535   -0.6134    0.0619 C   0  0  0  0  0  0  0  0  0  0  0  0
   -1.2160    0.3928    0.2843 C   0  0  0  0  0  0  0  0  0  0  0  0
   -1.6375    1.6825    0.6047 C   0  0  0  0  0  0  0  0  0  0  0  0
   -2.9943    1.9666    0.6752 C   0  0  0  0  0  0  0  0  0  0  0  0
   -3.9149    0.9522    0.4468 C   0  0  0  0  0  0  0  0  0  0  0  0
   -5.4174    1.0422    0.4844 C   0  0  0  0  0  0  0  0  0  0  0  0
    1.1412    0.6621   -0.4369 C   0  0  0  0  0  0  0  0  0  0  0  0
    4.7652   -0.0648   -0.3305 C   0  0  0  0  0  0  0  0  0  0  0  0
    5.2460    0.3886    0.8965 C   0  0  0  0  0  0  0  0  0  0  0  0
    0.8925    1.9690   -1.4638 S   0  0  0  0  0  0  0  0  0  0  0  0
    0.1556    0.0534    0.2562 N   0  0  0  0  0  0  0  0  0  0  0  0
    2.3580    0.1326   -0.2553 N   0  0  0  0  0  0  0  0  0  0  0  0
   -4.8396   -1.2541   -0.0373 B   0  0  1  0  0  0  0  0  0  0  0  0
   -5.9166   -0.2304    0.2090 O   0  0  0  0  0  0  0  0  0  0  0  0
   -4.9157   -1.7709   -1.4070 O   0  0  0  0  0  0  0  0  0  0  0  0
    7.0257   -2.5338   -0.8817 H   0  0  0  0  0  0  0  0  0  0  0  0
    7.8682   -1.7174    1.2979 H   0  0  0  0  0  0  0  0  0  0  0  0
    6.7222    0.1609    2.4324 H   0  0  0  0  0  0  0  0  0  0  0  0
    5.0481   -1.4830   -1.9137 H   0  0  0  0  0  0  0  0  0  0  0  0
   -1.8006   -1.6114   -0.1821 H   0  0  0  0  0  0  0  0  0  0  0  0
   -0.9078    2.4561    0.7979 H   0  0  0  0  0  0  0  0  0  0  0  0
   -3.3159    2.9728    0.9220 H   0  0  0  0  0  0  0  0  0  0  0  0
   -5.7550    1.4100    1.4668 H   0  0  0  0  0  0  0  0  0  0  0  0
   -5.7761    1.7877   -0.2440 H   0  0  0  0  0  0  0  0  0  0  0  0
    3.6166    1.6595   -0.8884 H   0  0  0  0  0  0  0  0  0  0  0  0
    3.4907    0.3200   -2.0126 H   0  0  0  0  0  0  0  0  0  0  0  0
    4.7512    1.2140    1.3953 H   0  0  0  0  0  0  0  0  0  0  0  0
   -5.7439   -2.7421    0.9918 H   0  0  0  0  0  0  0  0  0  0  0  0
    0.3873   -0.8215    0.7050 H   0  0  0  0  0  0  0  0  0  0  0  0
    2.4537   -0.6745    0.3441 H   0  0  0  0  0  0  0  0  0  0  0  0
   -5.7104   -2.2973   -1.5344 H   0  0  0  0  0  0  0  0  0  0  0  0
    3.5520    0.5720   -0.9507 C   0  0  0  0  0  0  0  0  0  0  0  0
   -4.8852   -2.3090    0.9789 O   0  0  0  0  0  0  0  0  0  0  0  0
 17 37  1  0
 17 12  1  0
 15 12  2  0
 37 13  1  0
 12 16  1  0
  4 13  1  0
  4  1  2  0
 13 14  2  0
 16  7  1  0
  1  2  1  0
  7  6  2  0
  7  8  1  0
 18 20  1  6
  6  5  1  0
 14  3  1  0
  2  3  2  0
  8  9  2  0
  5 18  1  0
  5 10  2  0
 18 19  1  0
 18 38  1  0
  9 10  1  0
 10 11  1  0
 19 11  1  0
  1 21  1  0
  2 22  1  0
  3 23  1  0
  4 24  1  0
  6 25  1  0
  8 26  1  0
  9 27  1  0
 11 28  1  0
 11 29  1  0
 37 30  1  0
 37 31  1  0
 14 32  1  0
 38 33  1  0
 16 34  1  0
 17 35  1  0
 20 36  1  0
M  CHG  1  18  -1
M  END
