
     RDKit          3D

 55 58  0  0  0  0  0  0  0  0999 V2000
    2.2430   -2.8366    0.0915 O   0  0  0  0  0  0  0  0  0  0  0  0
    2.3270   -1.6248    0.0024 C   0  0  0  0  0  0  0  0  0  0  0  0
    3.5489   -0.8215    0.0522 C   0  0  0  0  0  0  0  0  0  0  0  0
    4.8672   -1.2628    0.2014 C   0  0  0  0  0  0  0  0  0  0  0  0
    5.8771   -0.3267    0.2233 C   0  0  0  0  0  0  0  0  0  0  0  0
    7.1867   -0.5975    0.3522 O   0  0  0  0  0  0  0  0  0  0  0  0
    7.5735   -1.9541    0.4393 C   0  0  0  0  0  0  0  0  0  0  0  0
    5.5618    1.0581    0.1015 C   0  0  0  0  0  0  0  0  0  0  0  0
    6.6167    1.8758    0.1426 O   0  0  0  0  0  0  0  0  0  0  0  0
    6.3993    3.2707    0.0292 C   0  0  0  0  0  0  0  0  0  0  0  0
    4.2471    1.4749   -0.0477 C   0  0  0  0  0  0  0  0  0  0  0  0
    3.2383    0.5196   -0.0747 C   0  0  0  0  0  0  0  0  0  0  0  0
    1.7603    0.7369   -0.2338 C   0  0  0  0  0  0  0  0  0  0  0  0
    1.2066   -0.6648   -0.1839 C   0  0  0  0  0  0  0  0  0  0  0  0
   -0.0651   -1.0489   -0.2976 C   0  0  0  0  0  0  0  0  0  0  0  0
   -1.2305   -0.1464   -0.5141 C   0  0  1  0  0  0  0  0  0  0  0  0
   -1.9562   -0.4999   -1.8158 C   0  0  0  0  0  0  0  0  0  0  0  0
   -3.1954    0.3606   -1.9985 C   0  0  0  0  0  0  0  0  0  0  0  0
   -2.2253   -0.2335    0.6472 C   0  0  0  0  0  0  0  0  0  0  0  0
   -3.4573    0.6120    0.3699 C   0  0  0  0  0  0  0  0  0  0  0  0
   -4.0977    0.2197   -0.8718 N   0  0  0  0  0  0  0  0  0  0  0  0
   -5.3459    0.9184   -1.0813 C   0  0  0  0  0  0  0  0  0  0  0  0
   -6.4257    0.4819   -0.1229 C   0  0  0  0  0  0  0  0  0  0  0  0
   -7.3214    1.4054    0.4063 C   0  0  0  0  0  0  0  0  0  0  0  0
   -8.3501    0.9985    1.2479 C   0  0  0  0  0  0  0  0  0  0  0  0
   -8.4904   -0.3423    1.5774 C   0  0  0  0  0  0  0  0  0  0  0  0
   -7.5951   -1.2715    1.0595 C   0  0  0  0  0  0  0  0  0  0  0  0
   -6.5728   -0.8620    0.2158 C   0  0  0  0  0  0  0  0  0  0  0  0
    5.0692   -2.3218    0.2967 H   0  0  0  0  0  0  0  0  0  0  0  0
    8.6584   -1.9630    0.5063 H   0  0  0  0  0  0  0  0  0  0  0  0
    7.1612   -2.4399    1.3279 H   0  0  0  0  0  0  0  0  0  0  0  0
    7.2684   -2.5199   -0.4449 H   0  0  0  0  0  0  0  0  0  0  0  0
    7.3783    3.7386    0.0883 H   0  0  0  0  0  0  0  0  0  0  0  0
    5.9376    3.5319   -0.9259 H   0  0  0  0  0  0  0  0  0  0  0  0
    5.7751    3.6500    0.8417 H   0  0  0  0  0  0  0  0  0  0  0  0
    4.0026    2.5246   -0.1445 H   0  0  0  0  0  0  0  0  0  0  0  0
    1.3587    1.3685    0.5631 H   0  0  0  0  0  0  0  0  0  0  0  0
   -0.2842   -2.1137   -0.2382 H   0  0  0  0  0  0  0  0  0  0  0  0
   -0.8814    0.8898   -0.5877 H   0  0  0  0  0  0  0  0  0  0  0  0
   -1.2893   -0.3643   -2.6700 H   0  0  0  0  0  0  0  0  0  0  0  0
   -2.2478   -1.5547   -1.7967 H   0  0  0  0  0  0  0  0  0  0  0  0
   -2.8889    1.4111   -2.1498 H   0  0  0  0  0  0  0  0  0  0  0  0
   -3.7194    0.0530   -2.9066 H   0  0  0  0  0  0  0  0  0  0  0  0
   -2.5278   -1.2745    0.7972 H   0  0  0  0  0  0  0  0  0  0  0  0
   -1.7561    0.1030    1.5743 H   0  0  0  0  0  0  0  0  0  0  0  0
   -4.1681    0.4934    1.1903 H   0  0  0  0  0  0  0  0  0  0  0  0
   -3.1737    1.6801    0.3508 H   0  0  0  0  0  0  0  0  0  0  0  0
   -5.2284    2.0140   -1.0236 H   0  0  0  0  0  0  0  0  0  0  0  0
   -5.6824    0.7055   -2.1014 H   0  0  0  0  0  0  0  0  0  0  0  0
   -7.2138    2.4558    0.1601 H   0  0  0  0  0  0  0  0  0  0  0  0
   -9.0384    1.7312    1.6498 H   0  0  0  0  0  0  0  0  0  0  0  0
   -9.2892   -0.6618    2.2345 H   0  0  0  0  0  0  0  0  0  0  0  0
   -7.6946   -2.3191    1.3143 H   0  0  0  0  0  0  0  0  0  0  0  0
   -5.8702   -1.5854   -0.1786 H   0  0  0  0  0  0  0  0  0  0  0  0
    1.5282    1.2373   -1.1776 H   0  0  0  0  0  0  0  0  0  0  0  0
 26 25  1  0
 26 27  2  0
 25 24  2  0
 27 28  1  0
 24 23  1  0
 28 23  2  0
 23 22  1  0
 22 21  1  0
 18 21  1  0
 18 17  1  0
 21 20  1  0
 17 16  1  0
 20 19  1  0
 16 19  1  0
 16 15  1  0
 15 14  2  0
 14 13  1  0
 14  2  1  0
  1  2  2  0
 13 12  1  0
  2  3  1  0
 12  3  2  0
 12 11  1  0
  3  4  1  0
 11  8  2  0
  4  5  2  0
  8  5  1  0
  8  9  1  0
  5  6  1  0
  7  6  1  0
  9 10  1  0
  4 29  1  0
  7 30  1  0
  7 31  1  0
  7 32  1  0
 10 33  1  0
 10 34  1  0
 10 35  1  0
 11 36  1  0
 13 37  1  0
 15 38  1  0
 16 39  1  6
 17 40  1  0
 17 41  1  0
 18 42  1  0
 18 43  1  0
 19 44  1  0
 19 45  1  0
 20 46  1  0
 20 47  1  0
 22 48  1  0
 22 49  1  0
 24 50  1  0
 25 51  1  0
 26 52  1  0
 27 53  1  0
 28 54  1  0
 13 55  1  0
M  END
