
     RDKit          3D

 15 14  0  0  0  0  0  0  0  0999 V2000
   -1.6144    0.9280   -0.0052 C   0  0  0  0  0  0  0  0  0  0  0  0
   -0.6222   -0.1225    0.1052 N   0  0  0  0  0  0  0  0  0  0  0  0
   -1.1355   -1.4749    0.1392 C   0  0  0  0  0  0  0  0  0  0  0  0
    0.6815    0.1880   -0.0607 C   0  0  0  0  0  0  0  0  0  0  0  0
    1.6845   -0.9412   -0.0061 C   0  0  0  0  0  0  0  0  0  0  0  0
    1.0463    1.3451   -0.2389 O   0  0  0  0  0  0  0  0  0  0  0  0
   -1.8652    1.1469   -1.0462 H   0  0  0  0  0  0  0  0  0  0  0  0
   -2.5232    0.6086    0.5013 H   0  0  0  0  0  0  0  0  0  0  0  0
   -1.2676    1.8443    0.4650 H   0  0  0  0  0  0  0  0  0  0  0  0
   -1.5576   -1.7694   -0.8251 H   0  0  0  0  0  0  0  0  0  0  0  0
   -0.3634   -2.1905    0.4030 H   0  0  0  0  0  0  0  0  0  0  0  0
   -1.9226   -1.5511    0.8891 H   0  0  0  0  0  0  0  0  0  0  0  0
    1.5151   -1.6696   -0.7998 H   0  0  0  0  0  0  0  0  0  0  0  0
    2.6848   -0.5324   -0.1216 H   0  0  0  0  0  0  0  0  0  0  0  0
    1.6418   -1.4799    0.9418 H   0  0  0  0  0  0  0  0  0  0  0  0
  3  2  1  0
  1  2  1  0
  2  4  1  0
  4  6  2  0
  4  5  1  0
  1  7  1  0
  1  8  1  0
  1  9  1  0
  3 10  1  0
  3 11  1  0
  3 12  1  0
  5 13  1  0
  5 14  1  0
  5 15  1  0
M  END
