
     RDKit          3D

 30 31  0  0  0  0  0  0  0  0999 V2000
    3.4958   -2.2826    0.0689 O   0  0  0  0  0  0  0  0  0  0  0  0
    3.8582   -1.1189    0.0374 C   0  0  0  0  0  0  0  0  0  0  0  0
    5.2249   -0.8290    0.0396 N   0  0  0  0  0  0  0  0  0  0  0  0
    5.7702    0.3953    0.0084 C   0  0  0  0  0  0  0  0  0  0  0  0
    7.0835    0.4007    0.0191 O   0  0  0  0  0  0  0  0  0  0  0  0
    4.9610    1.5166   -0.0310 C   0  0  0  0  0  0  0  0  0  0  0  0
    3.5911    1.3169   -0.0349 C   0  0  0  0  0  0  0  0  0  0  0  0
    3.0179    0.0552   -0.0017 C   0  0  0  0  0  0  0  0  0  0  0  0
    1.6637   -0.2035   -0.0052 N   0  0  0  0  0  0  0  0  0  0  0  0
    0.9079    0.7868   -0.0113 N   0  0  0  0  0  0  0  0  0  0  0  0
   -0.4601    0.4762   -0.0251 C   0  0  0  0  0  0  0  0  0  0  0  0
   -0.9859   -0.8138   -0.1277 C   0  0  0  0  0  0  0  0  0  0  0  0
   -2.3550   -1.0052   -0.1360 C   0  0  0  0  0  0  0  0  0  0  0  0
   -3.1997    0.0941   -0.0367 C   0  0  0  0  0  0  0  0  0  0  0  0
   -4.9531   -0.1333   -0.0426 S   0  0  1  0  0  0  0  0  0  0  0  0
   -5.2295   -1.4875   -0.5028 O   0  0  0  0  0  0  0  0  0  0  0  0
   -5.3036    0.0873    1.5567 N   0  0  0  0  0  0  0  0  0  0  0  0
   -5.5860    0.9760   -0.7415 O   0  0  0  0  0  0  0  0  0  0  0  0
   -2.6940    1.3836    0.0617 C   0  0  0  0  0  0  0  0  0  0  0  0
   -1.3242    1.5678    0.0628 C   0  0  0  0  0  0  0  0  0  0  0  0
    5.8477   -1.6290    0.0707 H   0  0  0  0  0  0  0  0  0  0  0  0
    5.3935    2.5060   -0.0602 H   0  0  0  0  0  0  0  0  0  0  0  0
    2.9386    2.1797   -0.0667 H   0  0  0  0  0  0  0  0  0  0  0  0
   -0.3238   -1.6646   -0.2047 H   0  0  0  0  0  0  0  0  0  0  0  0
   -2.7547   -2.0064   -0.2216 H   0  0  0  0  0  0  0  0  0  0  0  0
   -6.2899    0.2878    1.6962 H   0  0  0  0  0  0  0  0  0  0  0  0
   -5.0204   -0.6984    2.1335 H   0  0  0  0  0  0  0  0  0  0  0  0
   -3.3532    2.2380    0.1350 H   0  0  0  0  0  0  0  0  0  0  0  0
   -0.9076    2.5640    0.1334 H   0  0  0  0  0  0  0  0  0  0  0  0
    7.4301    1.3030    0.0012 H   0  0  0  0  0  0  0  0  0  0  0  0
  6  7  1  0
  6  4  2  0
  5  4  1  0
  7  8  2  0
  4  3  1  0
 18 15  2  0
 16 15  2  0
 13 12  2  0
 13 14  1  0
 12 11  1  0
  8  9  1  0
  8  2  1  0
  3  2  1  0
  9 10  2  0
 15 14  1  0
 15 17  1  1
  2  1  2  0
 14 19  2  0
 11 10  1  0
 11 20  2  0
 19 20  1  0
  3 21  1  0
  6 22  1  0
  7 23  1  0
 12 24  1  0
 13 25  1  0
 17 26  1  0
 17 27  1  0
 19 28  1  0
 20 29  1  0
  5 30  1  0
M  END
