
     RDKit          3D

 46 46  0  0  0  0  0  0  0  0999 V2000
    3.2349    1.5802    0.8108 O   0  0  0  0  0  0  0  0  0  0  0  0
    1.9988    1.7602   -0.0079 P   0  0  1  0  0  0  0  0  0  0  0  0
    0.8445    2.3015    0.9681 O   0  0  0  0  0  0  0  0  0  0  0  0
    2.1337    2.8193   -1.2033 O   0  0  0  0  0  0  0  0  0  0  0  0
    1.3968    0.3212   -0.9100 C   0  0  0  0  0  0  0  0  0  0  0  0
    1.0935   -0.9662   -0.1240 C   0  0  1  0  0  0  0  0  0  0  0  0
    2.3163   -1.5604    0.5879 C   0  0  0  0  0  0  0  0  0  0  0  0
    3.4761   -1.7582   -0.3637 C   0  0  0  0  0  0  0  0  0  0  0  0
    4.6421   -1.1474   -0.0814 N   0  0  0  0  0  0  0  0  0  0  0  0
    5.8352   -1.2458   -0.8841 C   0  0  0  0  0  0  0  0  0  0  0  0
    4.8251   -0.4792    1.0996 O   0  0  0  0  0  0  0  0  0  0  0  0
    3.3338   -2.4267   -1.3836 O   0  0  0  0  0  0  0  0  0  0  0  0
   -0.0619   -0.8431    0.8701 C   0  0  0  0  0  0  0  0  0  0  0  0
   -1.3945   -0.4593    0.2417 C   0  0  0  0  0  0  0  0  0  0  0  0
   -2.5224   -0.3905    1.2730 C   0  0  0  0  0  0  0  0  0  0  0  0
   -3.8590   -0.1276    0.6364 C   0  0  0  0  0  0  0  0  0  0  0  0
   -4.1905    1.1461    0.1769 C   0  0  0  0  0  0  0  0  0  0  0  0
   -5.4117    1.3718   -0.4403 C   0  0  0  0  0  0  0  0  0  0  0  0
   -6.3180    0.3318   -0.6044 C   0  0  0  0  0  0  0  0  0  0  0  0
   -6.0117   -0.9495   -0.1544 C   0  0  0  0  0  0  0  0  0  0  0  0
   -4.7780   -1.1574    0.4606 C   0  0  0  0  0  0  0  0  0  0  0  0
   -6.9741   -2.0874   -0.3410 C   0  0  0  0  0  0  0  0  0  0  0  0
    0.0368    2.6096    0.5369 H   0  0  0  0  0  0  0  0  0  0  0  0
    2.5509    3.6558   -0.9525 H   0  0  0  0  0  0  0  0  0  0  0  0
    0.5055    0.6343   -1.4597 H   0  0  0  0  0  0  0  0  0  0  0  0
    2.1452    0.1132   -1.6797 H   0  0  0  0  0  0  0  0  0  0  0  0
    0.7877   -1.6840   -0.8905 H   0  0  0  0  0  0  0  0  0  0  0  0
    2.5727   -0.9761    1.4678 H   0  0  0  0  0  0  0  0  0  0  0  0
    2.0375   -2.5531    0.9520 H   0  0  0  0  0  0  0  0  0  0  0  0
    6.1811   -0.2520   -1.1705 H   0  0  0  0  0  0  0  0  0  0  0  0
    6.6295   -1.7479   -0.3296 H   0  0  0  0  0  0  0  0  0  0  0  0
    5.6243   -1.8159   -1.7823 H   0  0  0  0  0  0  0  0  0  0  0  0
    4.3261    0.3696    1.0027 H   0  0  0  0  0  0  0  0  0  0  0  0
   -0.1783   -1.8153    1.3589 H   0  0  0  0  0  0  0  0  0  0  0  0
    0.1921   -0.1394    1.6677 H   0  0  0  0  0  0  0  0  0  0  0  0
   -1.3263    0.5077   -0.2656 H   0  0  0  0  0  0  0  0  0  0  0  0
   -1.6529   -1.1888   -0.5321 H   0  0  0  0  0  0  0  0  0  0  0  0
   -2.5594   -1.3284    1.8335 H   0  0  0  0  0  0  0  0  0  0  0  0
   -2.2957    0.3961    1.9988 H   0  0  0  0  0  0  0  0  0  0  0  0
   -3.4930    1.9657    0.3081 H   0  0  0  0  0  0  0  0  0  0  0  0
   -5.6650    2.3650   -0.7895 H   0  0  0  0  0  0  0  0  0  0  0  0
   -7.2729    0.5217   -1.0805 H   0  0  0  0  0  0  0  0  0  0  0  0
   -4.5266   -2.1510    0.8183 H   0  0  0  0  0  0  0  0  0  0  0  0
   -6.7642   -2.6325   -1.2637 H   0  0  0  0  0  0  0  0  0  0  0  0
   -6.9090   -2.8031    0.4779 H   0  0  0  0  0  0  0  0  0  0  0  0
   -8.0034   -1.7349   -0.4009 H   0  0  0  0  0  0  0  0  0  0  0  0
 18 19  2  0
 18 17  1  0
 19 20  1  0
 17 16  2  0
 20 22  1  0
 20 21  2  0
 16 21  1  0
 16 15  1  0
 15 14  1  0
 10  9  1  0
 11  9  1  0
 13 14  1  0
 13  6  1  0
  9  8  1  0
  1  2  2  0
  8 12  2  0
  8  7  1  0
  6  7  1  0
  6  5  1  0
  5  2  1  0
  2  4  1  6
  2  3  1  0
  3 23  1  0
  4 24  1  0
  5 25  1  0
  5 26  1  0
  6 27  1  6
  7 28  1  0
  7 29  1  0
 10 30  1  0
 10 31  1  0
 10 32  1  0
 11 33  1  0
 13 34  1  0
 13 35  1  0
 14 36  1  0
 14 37  1  0
 15 38  1  0
 15 39  1  0
 17 40  1  0
 18 41  1  0
 19 42  1  0
 21 43  1  0
 22 44  1  0
 22 45  1  0
 22 46  1  0
M  END
