
     RDKit          3D

 56 58  0  0  0  0  0  0  0  0999 V2000
    1.7388   13.8905    5.3908 O   0  0  0  0  0  0  0  0  0  0  0  0
    1.4867   12.8534    4.8270 N   0  0  0  0  0  0  0  0  0  0  0  0
    0.4569   12.2383    4.9673 O   0  0  0  0  0  0  0  0  0  0  0  0
    2.4893   12.3097    3.9193 C   0  0  0  0  0  0  0  0  0  0  0  0
    3.6902   12.9819    3.7572 C   0  0  0  0  0  0  0  0  0  0  0  0
    4.6418   12.4412    2.9072 C   0  0  0  0  0  0  0  0  0  0  0  0
    4.3915   11.2544    2.2393 C   0  0  0  0  0  0  0  0  0  0  0  0
    2.2112   11.1287    3.2498 C   0  0  0  0  0  0  0  0  0  0  0  0
    3.1704   10.6012    2.3962 C   0  0  0  0  0  0  0  0  0  0  0  0
    2.9631    9.3137    1.6683 C   0  0  0  0  0  0  0  0  0  0  0  0
    3.8888    8.5882    1.3860 O   0  0  0  0  0  0  0  0  0  0  0  0
    1.6612    9.0490    1.3366 N   0  0  0  0  0  0  0  0  0  0  0  0
    1.2177    7.8743    0.7669 C   0  0  0  0  0  0  0  0  0  0  0  0
    1.7340    6.6954    0.9573 N   0  0  0  0  0  0  0  0  0  0  0  0
    0.9610    5.8549    0.1975 C   0  0  0  0  0  0  0  0  0  0  0  0
    1.0607    4.4774    0.0156 C   0  0  0  0  0  0  0  0  0  0  0  0
    0.1237    3.8834   -0.8049 C   0  0  0  0  0  0  0  0  0  0  0  0
    0.1573    2.5091   -0.9635 O   0  0  0  0  0  0  0  0  0  0  0  0
    0.7357    2.0085   -2.0709 C   0  0  0  0  0  0  0  0  0  0  0  0
    1.2442    2.7103   -2.9015 O   0  0  0  0  0  0  0  0  0  0  0  0
    0.6589    0.4932   -2.1025 C   0  0  1  0  0  0  0  0  0  0  0  0
   -0.8006    0.0482   -1.9428 C   0  0  0  0  0  0  0  0  0  0  0  0
    1.2078   -0.0115   -3.4343 C   0  0  0  0  0  0  0  0  0  0  0  0
    1.5037   -0.0677   -0.9497 C   0  0  0  0  0  0  0  0  0  0  0  0
   -0.8882    4.6060   -1.4428 C   0  0  0  0  0  0  0  0  0  0  0  0
   -0.0547    6.5784   -0.4446 C   0  0  0  0  0  0  0  0  0  0  0  0
   -0.9925    5.9754   -1.2691 C   0  0  0  0  0  0  0  0  0  0  0  0
    0.1306    7.8841   -0.0549 N   0  0  0  0  0  0  0  0  0  0  0  0
   -0.5840    9.0330   -0.5762 C   0  0  0  0  0  0  0  0  0  0  0  0
    0.1232    9.6598   -1.7695 C   0  0  0  0  0  0  0  0  0  0  0  0
   -0.6674   10.8345   -2.3140 C   0  0  0  0  0  0  0  0  0  0  0  0
    0.0328   11.3754   -3.4113 O   0  0  0  0  0  0  0  0  0  0  0  0
    3.8933   13.9051    4.2798 H   0  0  0  0  0  0  0  0  0  0  0  0
    5.5858   12.9494    2.7709 H   0  0  0  0  0  0  0  0  0  0  0  0
    5.1448   10.8377    1.5849 H   0  0  0  0  0  0  0  0  0  0  0  0
    1.2722   10.6215    3.4224 H   0  0  0  0  0  0  0  0  0  0  0  0
    0.9831    9.7860    1.4620 H   0  0  0  0  0  0  0  0  0  0  0  0
    1.8353    3.8969    0.5001 H   0  0  0  0  0  0  0  0  0  0  0  0
   -1.2118    0.3154   -0.9700 H   0  0  0  0  0  0  0  0  0  0  0  0
   -1.4389    0.4812   -2.7149 H   0  0  0  0  0  0  0  0  0  0  0  0
   -0.8572   -1.0368   -2.0389 H   0  0  0  0  0  0  0  0  0  0  0  0
    0.6405    0.3769   -4.2808 H   0  0  0  0  0  0  0  0  0  0  0  0
    1.1423   -1.0998   -3.4628 H   0  0  0  0  0  0  0  0  0  0  0  0
    2.2541    0.2604   -3.5730 H   0  0  0  0  0  0  0  0  0  0  0  0
    1.1441    0.2642    0.0237 H   0  0  0  0  0  0  0  0  0  0  0  0
    1.4570   -1.1575   -0.9696 H   0  0  0  0  0  0  0  0  0  0  0  0
    2.5519    0.2205   -1.0454 H   0  0  0  0  0  0  0  0  0  0  0  0
   -1.6014    4.0880   -2.0707 H   0  0  0  0  0  0  0  0  0  0  0  0
   -1.7763    6.5351   -1.7616 H   0  0  0  0  0  0  0  0  0  0  0  0
   -0.7289    9.7612    0.2236 H   0  0  0  0  0  0  0  0  0  0  0  0
   -1.5840    8.6952   -0.8493 H   0  0  0  0  0  0  0  0  0  0  0  0
    0.2492    8.9061   -2.5512 H   0  0  0  0  0  0  0  0  0  0  0  0
    1.1209    9.9937   -1.4721 H   0  0  0  0  0  0  0  0  0  0  0  0
   -0.8055   11.5798   -1.5195 H   0  0  0  0  0  0  0  0  0  0  0  0
   -1.6698   10.4933   -2.6045 H   0  0  0  0  0  0  0  0  0  0  0  0
   -0.4811   12.1082   -3.7619 H   0  0  0  0  0  0  0  0  0  0  0  0
  1  2  1  0
  2  3  2  0
  2  4  1  0
  4  8  2  0
  4  5  1  0
  5  6  2  0
  5 33  1  0
  6  7  1  0
  6 34  1  0
  7  9  2  0
  7 35  1  0
  8  9  1  0
  8 36  1  0
  9 10  1  0
 10 12  1  0
 10 11  2  0
 12 13  1  0
 12 37  1  0
 13 28  1  0
 13 14  2  0
 14 15  1  0
 15 16  2  0
 15 26  1  0
 16 17  1  0
 16 38  1  0
 17 18  1  0
 17 25  2  0
 18 19  1  0
 21 19  1  6
 19 20  2  0
 21 23  1  0
 21 24  1  0
 21 22  1  0
 22 39  1  0
 22 40  1  0
 22 41  1  0
 23 42  1  0
 23 43  1  0
 23 44  1  0
 24 45  1  0
 24 46  1  0
 24 47  1  0
 25 27  1  0
 25 48  1  0
 26 27  2  0
 26 28  1  0
 27 49  1  0
 28 29  1  0
 29 30  1  0
 29 50  1  0
 29 51  1  0
 30 31  1  0
 30 52  1  0
 30 53  1  0
 31 32  1  0
 31 54  1  0
 31 55  1  0
 32 56  1  0
M  CHG  2   1  -1   2   1
M  END
