
     RDKit          3D

 30 31  0  0  0  0  0  0  0  0999 V2000
    4.2548   -0.3913    0.0471 C   0  0  0  0  0  0  0  0  0  0  0  0
    3.0081   -1.1724    0.2103 C   0  0  0  0  0  0  0  0  0  0  0  0
    1.7867   -0.2697    0.1708 C   0  0  0  0  0  0  0  0  0  0  0  0
   -1.6062   -1.0273   -0.0438 C   0  0  0  0  0  0  0  0  0  0  0  0
   -3.1461    0.9482    0.0379 C   0  0  0  0  0  0  0  0  0  0  0  0
   -2.9375   -0.4318   -0.0484 C   0  0  0  0  0  0  0  0  0  0  0  0
   -4.0471   -1.2684   -0.1391 C   0  0  0  0  0  0  0  0  0  0  0  0
   -5.3320   -0.7446   -0.1402 C   0  0  0  0  0  0  0  0  0  0  0  0
   -5.5463    0.6268   -0.0501 C   0  0  0  0  0  0  0  0  0  0  0  0
   -4.4282    1.4622    0.0358 C   0  0  0  0  0  0  0  0  0  0  0  0
   -6.9318    1.1997   -0.0275 C   0  0  0  0  0  0  0  0  0  0  0  0
    5.9676    0.6437    0.4064 N   0  0  0  0  0  0  0  0  0  0  0  0
    5.8180    0.6830   -0.8812 N   0  0  0  0  0  0  0  0  0  0  0  0
    5.0318   -0.0103    1.0397 N   0  0  0  0  0  0  0  0  0  0  0  0
    4.7325    0.0292   -1.1361 N   0  0  0  0  0  0  0  0  0  0  0  0
    0.6254   -0.9585    0.0522 N   0  0  0  0  0  0  0  0  0  0  0  0
   -0.5567   -0.3159    0.0530 N   0  0  0  0  0  0  0  0  0  0  0  0
    1.8536    0.9378    0.2548 O   0  0  0  0  0  0  0  0  0  0  0  0
    2.9409   -1.9365   -0.5667 H   0  0  0  0  0  0  0  0  0  0  0  0
    3.0238   -1.6967    1.1688 H   0  0  0  0  0  0  0  0  0  0  0  0
   -1.5610   -2.1167   -0.1229 H   0  0  0  0  0  0  0  0  0  0  0  0
   -3.9078   -2.3409   -0.2086 H   0  0  0  0  0  0  0  0  0  0  0  0
   -6.1787   -1.4164   -0.2112 H   0  0  0  0  0  0  0  0  0  0  0  0
   -4.5678    2.5349    0.1017 H   0  0  0  0  0  0  0  0  0  0  0  0
   -7.1791    1.5827    0.9644 H   0  0  0  0  0  0  0  0  0  0  0  0
   -7.0310    2.0318   -0.7251 H   0  0  0  0  0  0  0  0  0  0  0  0
   -7.6787    0.4505   -0.2865 H   0  0  0  0  0  0  0  0  0  0  0  0
    6.7522    1.0785    0.8743 H   0  0  0  0  0  0  0  0  0  0  0  0
    0.6483   -1.9705   -0.0188 H   0  0  0  0  0  0  0  0  0  0  0  0
   -2.2990    1.6183    0.1057 H   0  0  0  0  0  0  0  0  0  0  0  0
 15 13  2  0
 15  1  1  0
 13 12  1  0
  1  2  1  0
  1 14  2  0
  2  3  1  0
 12 14  1  0
  3 16  1  0
  3 18  2  0
 16 17  1  0
 17  4  2  0
  4  6  1  0
  6  7  1  0
  6  5  2  0
  7  8  2  0
  5 10  1  0
  8  9  1  0
 10  9  2  0
  9 11  1  0
  2 19  1  0
  2 20  1  0
  4 21  1  0
  5 30  1  0
  7 22  1  0
  8 23  1  0
 10 24  1  0
 11 25  1  0
 11 26  1  0
 11 27  1  0
 12 28  1  0
 16 29  1  0
M  END
