
     RDKit          3D

 25 25  0  0  0  0  0  0  0  0999 V2000
    2.1413    1.5359    0.9405 N   0  0  0  0  0  0  0  0  0  0  0  0
    2.0772    0.2086    0.3705 C   0  0  2  0  0  0  0  0  0  0  0  0
    3.4706   -0.2826    0.0135 C   0  0  0  0  0  0  0  0  0  0  0  0
    4.3895    0.3265   -0.5389 O   0  0  0  0  0  0  0  0  0  0  0  0
    1.2151    0.0535   -0.9021 C   0  0  0  0  0  0  0  0  0  0  0  0
   -0.2356    0.1046   -0.5795 C   0  0  0  0  0  0  0  0  0  0  0  0
   -0.9185    1.3254   -0.6012 C   0  0  0  0  0  0  0  0  0  0  0  0
   -0.9169   -1.0731   -0.2538 C   0  0  0  0  0  0  0  0  0  0  0  0
   -2.2775    1.3860   -0.3008 C   0  0  0  0  0  0  0  0  0  0  0  0
   -2.2827   -1.0247    0.0499 C   0  0  0  0  0  0  0  0  0  0  0  0
   -2.9634    0.2133    0.0252 C   0  0  0  0  0  0  0  0  0  0  0  0
   -2.9024   -2.2104    0.3628 O   0  0  0  0  0  0  0  0  0  0  0  0
   -4.3073    0.1747    0.3365 O   0  0  0  0  0  0  0  0  0  0  0  0
    3.6985   -1.5759    0.3670 O   0  0  0  0  0  0  0  0  0  0  0  0
    2.0145    2.2369    0.2359 H   0  0  0  0  0  0  0  0  0  0  0  0
    1.4361    1.6358    1.6453 H   0  0  0  0  0  0  0  0  0  0  0  0
    1.6532   -0.4753    1.1683 H   0  0  0  0  0  0  0  0  0  0  0  0
    1.4778    0.8642   -1.6335 H   0  0  0  0  0  0  0  0  0  0  0  0
    1.4691   -0.9309   -1.3792 H   0  0  0  0  0  0  0  0  0  0  0  0
   -0.3800    2.2497   -0.8577 H   0  0  0  0  0  0  0  0  0  0  0  0
   -0.3968   -2.0422   -0.2316 H   0  0  0  0  0  0  0  0  0  0  0  0
   -2.8085    2.3480   -0.3195 H   0  0  0  0  0  0  0  0  0  0  0  0
   -3.8244   -2.0158    0.5929 H   0  0  0  0  0  0  0  0  0  0  0  0
   -4.6849    1.0418    0.1298 H   0  0  0  0  0  0  0  0  0  0  0  0
    4.6019   -1.8297    0.1136 H   0  0  0  0  0  0  0  0  0  0  0  0
  1  2  1  0
  1 15  1  0
  1 16  1  0
  2  3  1  0
  2  5  1  0
  2 17  1  1
  3  4  2  0
  3 14  1  0
  5  6  1  0
  5 18  1  0
  5 19  1  0
  6  7  2  0
  6  8  1  0
  7  9  1  0
  7 20  1  0
  8 10  2  0
  8 21  1  0
  9 11  2  0
  9 22  1  0
 10 11  1  0
 10 12  1  0
 11 13  1  0
 12 23  1  0
 13 24  1  0
 14 25  1  0
M  END
