
     RDKit          3D

 19 20  0  0  0  0  0  0  0  0999 V2000
   -1.9816    0.0779    0.0056 C   0  0  0  0  0  0  0  0  0  0  0  0
   -0.6601    0.4898    0.0059 C   0  0  0  0  0  0  0  0  0  0  0  0
    0.3610   -0.4614    0.0095 C   0  0  0  0  0  0  0  0  0  0  0  0
    0.0170   -1.8152    0.0129 C   0  0  0  0  0  0  0  0  0  0  0  0
   -1.3115   -2.2057    0.0126 C   0  0  0  0  0  0  0  0  0  0  0  0
   -2.3313   -1.2629    0.0086 C   0  0  0  0  0  0  0  0  0  0  0  0
    1.7562   -0.0285    0.0089 C   0  0  0  0  0  0  0  0  0  0  0  0
    2.8917   -0.8014    0.0175 C   0  0  0  0  0  0  0  0  0  0  0  0
    3.4089    1.3232   -0.0006 C   0  0  0  0  0  0  0  0  0  0  0  0
    3.9269    0.0790    0.0116 N   0  0  0  0  0  0  0  0  0  0  0  0
    2.1032    1.2958   -0.0024 N   0  0  0  0  0  0  0  0  0  0  0  0
   -3.2350    1.2799    0.0013 Cl  0  0  0  0  0  0  0  0  0  0  0  0
   -0.4160    1.5434    0.0026 H   0  0  0  0  0  0  0  0  0  0  0  0
    0.7889   -2.5739    0.0154 H   0  0  0  0  0  0  0  0  0  0  0  0
   -1.5611   -3.2585    0.0153 H   0  0  0  0  0  0  0  0  0  0  0  0
   -3.3690   -1.5667    0.0078 H   0  0  0  0  0  0  0  0  0  0  0  0
    3.0465   -1.8669    0.0278 H   0  0  0  0  0  0  0  0  0  0  0  0
    4.0262    2.2079   -0.0077 H   0  0  0  0  0  0  0  0  0  0  0  0
    4.9067   -0.1577    0.0149 H   0  0  0  0  0  0  0  0  0  0  0  0
  9 11  2  0
  9 10  1  0
 11  7  1  0
 10  8  1  0
  7  8  2  0
  7  3  1  0
  2  3  1  0
  2  1  2  0
  3  4  2  0
 12  1  1  0
  1  6  1  0
  4  5  1  0
  6  5  2  0
  2 13  1  0
  4 14  1  0
  5 15  1  0
  6 16  1  0
  8 17  1  0
  9 18  1  0
 10 19  1  0
M  END
