
     RDKit          3D

 44 44  0  0  0  0  0  0  0  0999 V2000
   -0.2850    1.0800    0.1287 C   0  0  0  0  0  0  0  0  0  0  0  0
    0.2450    2.3396    0.4350 C   0  0  0  0  0  0  0  0  0  0  0  0
   -1.6642    0.9774   -0.1276 C   0  0  0  0  0  0  0  0  0  0  0  0
    0.5853   -0.0933    0.0809 C   0  0  0  0  0  0  0  0  0  0  0  0
   -0.6180    3.4529    0.4846 C   0  0  0  0  0  0  0  0  0  0  0  0
   -2.4209    2.1286   -0.0545 C   0  0  0  0  0  0  0  0  0  0  0  0
    1.5326    2.5384    0.6872 O   0  0  0  0  0  0  0  0  0  0  0  0
   -2.2689   -0.3558   -0.4728 C   0  0  0  0  0  0  0  0  0  0  0  0
    1.8335    0.0189    0.2851 N   0  0  0  0  0  0  0  0  0  0  0  0
   -1.9056    3.3232    0.2441 N   0  0  0  0  0  0  0  0  0  0  0  0
   -0.0764    4.8072    0.8190 C   0  0  0  0  0  0  0  0  0  0  0  0
   -3.6452   -0.1880   -0.7837 O   0  0  0  0  0  0  0  0  0  0  0  0
    2.7418   -1.1148    0.2804 C   0  0  2  0  0  0  0  0  0  0  0  0
   -4.6464   -1.4250   -0.6187 P   0  0  1  0  0  0  0  0  0  0  0  0
    2.2267   -2.4029   -0.3814 C   0  0  0  0  0  0  0  0  0  0  0  0
    3.0945   -1.4151    1.7438 C   0  0  0  0  0  0  0  0  0  0  0  0
    4.2027   -0.4221   -0.6064 P   0  0  1  0  0  0  0  0  0  0  0  0
   -4.2101   -2.7030   -1.2094 O   0  0  0  0  0  0  0  0  0  0  0  0
   -4.8833   -1.6119    0.9493 O   0  0  0  0  0  0  0  0  0  0  0  0
   -5.9249   -0.7057   -1.2347 O   0  0  0  0  0  0  0  0  0  0  0  0
    4.8211    0.7166    0.3471 O   0  0  0  0  0  0  0  0  0  0  0  0
    5.2088   -1.6700   -0.5584 O   0  0  0  0  0  0  0  0  0  0  0  0
    3.9283    0.1659   -1.9374 O   0  0  0  0  0  0  0  0  0  0  0  0
    1.8857   -2.3526   -1.8669 C   0  0  0  0  0  0  0  0  0  0  0  0
    0.1208   -1.0571   -0.1224 H   0  0  0  0  0  0  0  0  0  0  0  0
   -3.4864    2.1089   -0.2394 H   0  0  0  0  0  0  0  0  0  0  0  0
    1.9926    1.6587    0.6058 H   0  0  0  0  0  0  0  0  0  0  0  0
   -1.7627   -0.7925   -1.3379 H   0  0  0  0  0  0  0  0  0  0  0  0
   -2.1363   -1.0462    0.3672 H   0  0  0  0  0  0  0  0  0  0  0  0
    0.6996    5.1163    0.1167 H   0  0  0  0  0  0  0  0  0  0  0  0
   -0.8765    5.5432    0.7914 H   0  0  0  0  0  0  0  0  0  0  0  0
    0.3726    4.8232    1.8137 H   0  0  0  0  0  0  0  0  0  0  0  0
    1.3545   -2.7379    0.1886 H   0  0  0  0  0  0  0  0  0  0  0  0
    2.9781   -3.1768   -0.2154 H   0  0  0  0  0  0  0  0  0  0  0  0
    3.8930   -2.1522    1.8211 H   0  0  0  0  0  0  0  0  0  0  0  0
    3.3908   -0.5195    2.2889 H   0  0  0  0  0  0  0  0  0  0  0  0
    2.2143   -1.8223    2.2427 H   0  0  0  0  0  0  0  0  0  0  0  0
   -5.2186   -0.8383    1.4226 H   0  0  0  0  0  0  0  0  0  0  0  0
   -6.6781   -1.2952   -1.3758 H   0  0  0  0  0  0  0  0  0  0  0  0
    5.1855    0.4215    1.1913 H   0  0  0  0  0  0  0  0  0  0  0  0
    5.9984   -1.5733   -1.1092 H   0  0  0  0  0  0  0  0  0  0  0  0
    2.7689   -2.2157   -2.4875 H   0  0  0  0  0  0  0  0  0  0  0  0
    1.4253   -3.2953   -2.1612 H   0  0  0  0  0  0  0  0  0  0  0  0
    1.1843   -1.5568   -2.1182 H   0  0  0  0  0  0  0  0  0  0  0  0
  1  2  2  0
  1  3  1  0
  1  4  1  0
  2  5  1  0
  2  7  1  0
  3  6  2  0
  3  8  1  0
  4  9  2  0
  4 25  1  0
  5 10  2  0
  5 11  1  0
  6 10  1  0
  6 26  1  0
  7 27  1  0
  8 12  1  0
  8 28  1  0
  8 29  1  0
 13  9  1  1
 11 30  1  0
 11 31  1  0
 11 32  1  0
 14 12  1  1
 13 15  1  0
 13 16  1  0
 13 17  1  0
 14 18  2  0
 14 19  1  0
 14 20  1  0
 15 24  1  0
 15 33  1  0
 15 34  1  0
 16 35  1  0
 16 36  1  0
 16 37  1  0
 17 21  1  1
 17 22  1  0
 17 23  2  0
 19 38  1  0
 20 39  1  0
 21 40  1  0
 22 41  1  0
 24 42  1  0
 24 43  1  0
 24 44  1  0
M  END
