
     RDKit          3D

 80 85  0  0  0  0  0  0  0  0999 V2000
   -5.2372    0.3607   -0.6114 C   0  0  0  0  0  0  0  0  0  0  0  0
   -5.2406    1.4403    0.2849 C   0  0  0  0  0  0  0  0  0  0  0  0
   -4.0824    1.6008    1.0188 C   0  0  0  0  0  0  0  0  0  0  0  0
   -3.0044    0.8413    0.8650 N   0  0  0  0  0  0  0  0  0  0  0  0
   -4.1638   -0.3744   -0.7944 N   0  0  0  0  0  0  0  0  0  0  0  0
    7.5802    1.8677   -1.2305 C   0  0  0  0  0  0  0  0  0  0  0  0
    8.7099    1.8120   -2.2520 C   0  0  0  0  0  0  0  0  0  0  0  0
   10.0320    1.6801   -1.6715 N   0  0  0  0  0  0  0  0  0  0  0  0
   10.5262    2.8997   -1.0639 C   0  0  0  0  0  0  0  0  0  0  0  0
   10.0239    0.5444   -0.7694 C   0  0  0  0  0  0  0  0  0  0  0  0
    8.9100    0.5811    0.2699 C   0  0  0  0  0  0  0  0  0  0  0  0
    7.5979    0.7007   -0.3559 N   0  0  0  0  0  0  0  0  0  0  0  0
    6.5246    0.7372    0.6371 C   0  0  1  0  0  0  0  0  0  0  0  0
    5.1451    0.8721   -0.0111 C   0  0  0  0  0  0  0  0  0  0  0  0
    4.0227    0.8549    1.0214 C   0  0  0  0  0  0  0  0  0  0  0  0
    6.5213   -0.5152    1.5188 C   0  0  0  0  0  0  0  0  0  0  0  0
    5.3629   -0.4933    2.5060 C   0  0  0  0  0  0  0  0  0  0  0  0
    4.0833   -0.3457    1.8377 N   0  0  0  0  0  0  0  0  0  0  0  0
    3.5785   -2.5429    2.0505 O   0  0  0  0  0  0  0  0  0  0  0  0
    1.9044   -1.1745    1.1289 C   0  0  0  0  0  0  0  0  0  0  0  0
    1.4122   -2.0667    0.1748 C   0  0  0  0  0  0  0  0  0  0  0  0
    0.1244   -1.9362   -0.3075 C   0  0  0  0  0  0  0  0  0  0  0  0
   -0.4197   -2.7314   -1.2499 O   0  0  0  0  0  0  0  0  0  0  0  0
    0.3583   -3.7782   -1.7978 C   0  0  0  0  0  0  0  0  0  0  0  0
    1.0730   -0.1802    1.6155 C   0  0  0  0  0  0  0  0  0  0  0  0
   -0.2342   -0.0597    1.1604 C   0  0  0  0  0  0  0  0  0  0  0  0
   -0.7309   -0.9245    0.1914 C   0  0  0  0  0  0  0  0  0  0  0  0
   -3.0784   -0.0968   -0.0670 C   0  0  0  0  0  0  0  0  0  0  0  0
   -6.3832    0.0438   -1.3255 N   0  0  0  0  0  0  0  0  0  0  0  0
   -6.1950   -0.7137   -2.5517 C   0  0  0  0  0  0  0  0  0  0  0  0
   -7.5159   -0.2494   -0.5342 C   0  0  0  0  0  0  0  0  0  0  0  0
   -8.1447   -1.4902   -0.6546 C   0  0  0  0  0  0  0  0  0  0  0  0
   -9.2294   -1.8166    0.1410 C   0  0  0  0  0  0  0  0  0  0  0  0
   -9.7095   -0.9130    1.0785 C   0  0  0  0  0  0  0  0  0  0  0  0
   -9.1138    0.3299    1.1785 C   0  0  0  0  0  0  0  0  0  0  0  0
   -8.0216    0.6793    0.3836 C   0  0  0  0  0  0  0  0  0  0  0  0
   -7.5820    2.1005    0.4638 C   0  0  0  0  0  0  0  0  0  0  0  0
   -8.4076    2.9783    0.6603 O   0  0  0  0  0  0  0  0  0  0  0  0
   -6.2677    2.3987    0.3182 N   0  0  0  0  0  0  0  0  0  0  0  0
   -5.8824    3.8046    0.3575 C   0  0  0  0  0  0  0  0  0  0  0  0
   -4.0049    2.3985    1.7499 H   0  0  0  0  0  0  0  0  0  0  0  0
    7.6339    2.8058   -0.6498 H   0  0  0  0  0  0  0  0  0  0  0  0
    6.6449    1.9013   -1.7884 H   0  0  0  0  0  0  0  0  0  0  0  0
    8.5398    0.9531   -2.9103 H   0  0  0  0  0  0  0  0  0  0  0  0
    8.6730    2.7058   -2.8789 H   0  0  0  0  0  0  0  0  0  0  0  0
    9.9476    3.2675   -0.2061 H   0  0  0  0  0  0  0  0  0  0  0  0
   11.5512    2.7464   -0.7214 H   0  0  0  0  0  0  0  0  0  0  0  0
   10.5462    3.6966   -1.8091 H   0  0  0  0  0  0  0  0  0  0  0  0
    9.9122   -0.3668   -1.3673 H   0  0  0  0  0  0  0  0  0  0  0  0
   10.9879    0.4759   -0.2600 H   0  0  0  0  0  0  0  0  0  0  0  0
    8.9682   -0.3464    0.8388 H   0  0  0  0  0  0  0  0  0  0  0  0
    9.0846    1.3996    0.9904 H   0  0  0  0  0  0  0  0  0  0  0  0
    6.6615    1.6111    1.3050 H   0  0  0  0  0  0  0  0  0  0  0  0
    5.0535    1.8075   -0.5642 H   0  0  0  0  0  0  0  0  0  0  0  0
    4.9981    0.0575   -0.7279 H   0  0  0  0  0  0  0  0  0  0  0  0
    4.1049    1.7284    1.6752 H   0  0  0  0  0  0  0  0  0  0  0  0
    3.0636    0.9219    0.5160 H   0  0  0  0  0  0  0  0  0  0  0  0
    6.4598   -1.4072    0.8874 H   0  0  0  0  0  0  0  0  0  0  0  0
    7.4395   -0.5926    2.1018 H   0  0  0  0  0  0  0  0  0  0  0  0
    5.3572   -1.3954    3.1116 H   0  0  0  0  0  0  0  0  0  0  0  0
    5.4807    0.3554    3.1876 H   0  0  0  0  0  0  0  0  0  0  0  0
    2.0562   -2.8538   -0.1938 H   0  0  0  0  0  0  0  0  0  0  0  0
    1.2521   -3.3983   -2.2991 H   0  0  0  0  0  0  0  0  0  0  0  0
    0.6576   -4.5011   -1.0350 H   0  0  0  0  0  0  0  0  0  0  0  0
   -0.2711   -4.2772   -2.5295 H   0  0  0  0  0  0  0  0  0  0  0  0
    1.4256    0.5082    2.3729 H   0  0  0  0  0  0  0  0  0  0  0  0
   -0.8708    0.7080    1.5681 H   0  0  0  0  0  0  0  0  0  0  0  0
   -2.1988   -1.5826   -1.0542 H   0  0  0  0  0  0  0  0  0  0  0  0
   -5.4247   -0.2310   -3.1480 H   0  0  0  0  0  0  0  0  0  0  0  0
   -5.8993   -1.7524   -2.3925 H   0  0  0  0  0  0  0  0  0  0  0  0
   -7.1236   -0.6924   -3.1184 H   0  0  0  0  0  0  0  0  0  0  0  0
   -7.7794   -2.2200   -1.3629 H   0  0  0  0  0  0  0  0  0  0  0  0
   -9.6899   -2.7898    0.0332 H   0  0  0  0  0  0  0  0  0  0  0  0
  -10.5497   -1.1669    1.7102 H   0  0  0  0  0  0  0  0  0  0  0  0
   -9.5078    1.0537    1.8791 H   0  0  0  0  0  0  0  0  0  0  0  0
   -6.5870    4.4022   -0.2147 H   0  0  0  0  0  0  0  0  0  0  0  0
   -5.8484    4.1899    1.3773 H   0  0  0  0  0  0  0  0  0  0  0  0
   -4.8983    3.9127   -0.0907 H   0  0  0  0  0  0  0  0  0  0  0  0
   -2.0085   -0.8913   -0.3443 N   0  0  0  0  0  0  0  0  0  0  0  0
    3.2662   -1.4128    1.6929 C   0  0  0  0  0  0  0  0  0  0  0  0
 16 17  1  0
 16 13  1  0
 17 18  1  0
 10 11  1  0
 10  8  1  0
 11 12  1  0
 19 80  2  0
  9  8  1  0
  8  7  1  0
 12 13  1  0
 12  6  1  0
 13 14  1  0
 18 80  1  0
 18 15  1  0
 80 20  1  0
 14 15  1  0
  7  6  1  0
 20 21  2  0
 20 25  1  0
 21 22  1  0
 25 26  2  0
 24 23  1  0
 22 23  1  0
 22 27  2  0
 26 27  1  0
 27 79  1  0
 79 28  1  0
 28  5  2  0
 28  4  1  0
  5  1  1  0
 32 33  2  0
 32 31  1  0
  4  3  2  0
 30 29  1  0
 33 34  1  0
  1 29  1  0
  1  2  2  0
 29 31  1  0
 31 36  2  0
  3  2  1  0
 34 35  2  0
  2 39  1  0
 36 35  1  0
 36 37  1  0
 39 37  1  0
 39 40  1  0
 37 38  2  0
  3 41  1  0
  6 42  1  0
  6 43  1  0
  7 44  1  0
  7 45  1  0
  9 46  1  0
  9 47  1  0
  9 48  1  0
 10 49  1  0
 10 50  1  0
 11 51  1  0
 11 52  1  0
 13 53  1  1
 14 54  1  0
 14 55  1  0
 15 56  1  0
 15 57  1  0
 16 58  1  0
 16 59  1  0
 17 60  1  0
 17 61  1  0
 21 62  1  0
 24 63  1  0
 24 64  1  0
 24 65  1  0
 25 66  1  0
 26 67  1  0
 79 68  1  0
 30 69  1  0
 30 70  1  0
 30 71  1  0
 32 72  1  0
 33 73  1  0
 34 74  1  0
 35 75  1  0
 40 76  1  0
 40 77  1  0
 40 78  1  0
M  END
