
     RDKit          3D

 56 60  0  0  0  0  0  0  0  0999 V2000
    5.5333    0.9431   -1.6781 C   0  0  0  0  0  0  0  0  0  0  0  0
    4.7495   -0.3008   -1.3798 C   0  0  0  0  0  0  0  0  0  0  0  0
    4.2795   -0.5616   -0.0986 C   0  0  0  0  0  0  0  0  0  0  0  0
    4.4590   -1.2164   -2.3910 C   0  0  0  0  0  0  0  0  0  0  0  0
    3.7121   -2.3549   -2.1313 C   0  0  0  0  0  0  0  0  0  0  0  0
    3.2151   -2.5878   -0.8564 C   0  0  0  0  0  0  0  0  0  0  0  0
    3.5002   -1.6850    0.1608 C   0  0  0  0  0  0  0  0  0  0  0  0
    2.9642   -1.8971    1.5353 C   0  0  0  0  0  0  0  0  0  0  0  0
    3.7035   -1.9799    2.4972 O   0  0  0  0  0  0  0  0  0  0  0  0
    1.5103   -1.9385    1.6737 C   0  0  0  0  0  0  0  0  0  0  0  0
    0.8132   -2.2374    2.7843 C   0  0  0  0  0  0  0  0  0  0  0  0
    1.2408   -2.6520    3.9524 O   0  0  0  0  0  0  0  0  0  0  0  0
   -0.6416   -2.0329    2.5383 C   0  0  0  0  0  0  0  0  0  0  0  0
   -1.5207   -2.2417    3.3493 O   0  0  0  0  0  0  0  0  0  0  0  0
   -0.7433   -1.5833    1.2687 N   0  0  0  0  0  0  0  0  0  0  0  0
   -1.9453   -1.2139    0.6342 C   0  0  0  0  0  0  0  0  0  0  0  0
   -2.2327   -1.6899   -0.6390 C   0  0  0  0  0  0  0  0  0  0  0  0
   -3.3981   -1.2945   -1.2776 C   0  0  0  0  0  0  0  0  0  0  0  0
   -4.2990   -0.4370   -0.6572 C   0  0  0  0  0  0  0  0  0  0  0  0
   -5.5644   -0.0255   -1.3459 C   0  0  0  0  0  0  0  0  0  0  0  0
   -6.7404   -0.8899   -0.9612 C   0  0  0  0  0  0  0  0  0  0  0  0
   -7.8247   -0.5661   -1.6557 O   0  0  0  0  0  0  0  0  0  0  0  0
   -6.7181   -1.7610   -0.1305 O   0  0  0  0  0  0  0  0  0  0  0  0
   -3.9998    0.0285    0.6195 C   0  0  0  0  0  0  0  0  0  0  0  0
   -2.8313   -0.3450    1.2621 C   0  0  0  0  0  0  0  0  0  0  0  0
    0.5470   -1.5080    0.5952 C   0  0  1  0  0  0  0  0  0  0  0  0
    0.8296   -0.1255    0.0529 C   0  0  0  0  0  0  0  0  0  0  0  0
    1.0460    0.0373   -1.3188 C   0  0  0  0  0  0  0  0  0  0  0  0
    1.3573    1.2999   -1.7544 C   0  0  0  0  0  0  0  0  0  0  0  0
    1.6022    1.7256   -3.0154 O   0  0  0  0  0  0  0  0  0  0  0  0
    2.0541    3.0682   -2.9012 C   0  0  0  0  0  0  0  0  0  0  0  0
    1.7326    3.5003   -1.5814 O   0  0  0  0  0  0  0  0  0  0  0  0
    1.4406    2.3792   -0.8931 C   0  0  0  0  0  0  0  0  0  0  0  0
    1.2107    2.2244    0.4517 C   0  0  0  0  0  0  0  0  0  0  0  0
    1.3069    3.5822    1.5072 Cl  0  0  0  0  0  0  0  0  0  0  0  0
    0.9039    0.9494    0.9256 C   0  0  0  0  0  0  0  0  0  0  0  0
    4.9257    1.6626   -2.2308 H   0  0  0  0  0  0  0  0  0  0  0  0
    5.8728    1.4331   -0.7669 H   0  0  0  0  0  0  0  0  0  0  0  0
    6.4066    0.7263   -2.2933 H   0  0  0  0  0  0  0  0  0  0  0  0
    4.4919    0.1389    0.7009 H   0  0  0  0  0  0  0  0  0  0  0  0
    4.8232   -1.0351   -3.3956 H   0  0  0  0  0  0  0  0  0  0  0  0
    3.5083   -3.0602   -2.9264 H   0  0  0  0  0  0  0  0  0  0  0  0
    2.6189   -3.4705   -0.6585 H   0  0  0  0  0  0  0  0  0  0  0  0
    0.4873   -2.7999    4.5453 H   0  0  0  0  0  0  0  0  0  0  0  0
   -1.5551   -2.3707   -1.1382 H   0  0  0  0  0  0  0  0  0  0  0  0
   -3.6068   -1.6683   -2.2724 H   0  0  0  0  0  0  0  0  0  0  0  0
   -5.8184    1.0119   -1.1073 H   0  0  0  0  0  0  0  0  0  0  0  0
   -5.4489   -0.0618   -2.4321 H   0  0  0  0  0  0  0  0  0  0  0  0
   -8.5687   -1.1275   -1.3907 H   0  0  0  0  0  0  0  0  0  0  0  0
   -4.6784    0.7098    1.1178 H   0  0  0  0  0  0  0  0  0  0  0  0
   -2.6032    0.0581    2.2392 H   0  0  0  0  0  0  0  0  0  0  0  0
    0.5601   -2.2196   -0.2368 H   0  0  0  0  0  0  0  0  0  0  0  0
    0.9956   -0.8011   -2.0001 H   0  0  0  0  0  0  0  0  0  0  0  0
    3.1388    3.1105   -3.0477 H   0  0  0  0  0  0  0  0  0  0  0  0
    0.7399    0.8083    1.9867 H   0  0  0  0  0  0  0  0  0  0  0  0
    1.5430    3.6965   -3.6292 H   0  0  0  0  0  0  0  0  0  0  0  0
 23 21  2  0
 21 22  1  0
 21 20  1  0
 20 19  1  0
 18 19  1  0
 18 17  2  0
 19 24  2  0
 17 16  1  0
 24 25  1  0
 16 25  2  0
 16 15  1  0
 14 13  2  0
 15 13  1  0
 15 26  1  0
 13 11  1  0
 26 10  1  0
 26 27  1  0
 11 10  2  0
 11 12  1  0
 10  8  1  0
  9  8  2  0
 36 27  1  0
 36 34  2  0
 27 28  2  0
  8  7  1  0
 35 34  1  0
 34 33  1  0
  3  7  1  0
  3  2  2  0
  7  6  2  0
 28 29  1  0
  1  2  1  0
 33 29  2  0
 33 32  1  0
  2  4  1  0
 29 30  1  0
  6  5  1  0
  4  5  2  0
 32 31  1  0
 30 31  1  0
  1 37  1  0
  1 38  1  0
  1 39  1  0
  3 40  1  0
  4 41  1  0
  5 42  1  0
  6 43  1  0
 12 44  1  0
 17 45  1  0
 18 46  1  0
 20 47  1  0
 20 48  1  0
 22 49  1  0
 24 50  1  0
 25 51  1  0
 26 52  1  6
 28 53  1  0
 31 54  1  0
 36 55  1  0
 31 56  1  0
M  END
