
     RDKit          3D

 20 20  0  0  0  0  0  0  0  0999 V2000
   -1.1410   -1.1557    0.2506 C   0  0  0  0  0  0  0  0  0  0  0  0
    0.2461   -1.1668    0.2302 C   0  0  0  0  0  0  0  0  0  0  0  0
    0.9436    0.0183    0.0468 C   0  0  0  0  0  0  0  0  0  0  0  0
    0.2495    1.2139   -0.1156 C   0  0  0  0  0  0  0  0  0  0  0  0
   -1.1326    1.2193   -0.0865 C   0  0  0  0  0  0  0  0  0  0  0  0
   -1.8445    0.0344    0.0913 C   0  0  0  0  0  0  0  0  0  0  0  0
   -3.3343    0.0775    0.1279 C   0  0  0  0  0  0  0  0  0  0  0  0
   -3.8978    1.1636    0.4925 N   0  0  0  0  0  0  0  0  0  0  0  0
   -3.9582   -1.0934   -0.1884 N   0  0  0  0  0  0  0  0  0  0  0  0
    2.4383    0.0233   -0.0244 C   0  0  1  0  0  0  0  0  0  0  0  0
    2.9828   -1.0570    0.5440 F   0  0  0  0  0  0  0  0  0  0  0  0
    2.8711    0.0530   -1.2945 F   0  0  0  0  0  0  0  0  0  0  0  0
    2.9659    1.0936    0.5829 F   0  0  0  0  0  0  0  0  0  0  0  0
   -1.6620   -2.0894    0.4167 H   0  0  0  0  0  0  0  0  0  0  0  0
    0.7636   -2.1064    0.3665 H   0  0  0  0  0  0  0  0  0  0  0  0
    0.7767    2.1470   -0.2657 H   0  0  0  0  0  0  0  0  0  0  0  0
   -1.6695    2.1495   -0.2096 H   0  0  0  0  0  0  0  0  0  0  0  0
   -4.9104    1.0851    0.4523 H   0  0  0  0  0  0  0  0  0  0  0  0
   -3.4988   -1.7303   -0.8186 H   0  0  0  0  0  0  0  0  0  0  0  0
   -4.9591   -1.0686   -0.3023 H   0  0  0  0  0  0  0  0  0  0  0  0
  6  1  2  0
  2  1  1  0
  1 14  1  0
  3  2  2  0
  2 15  1  0
  4  3  1  0
 10  3  1  0
  4  5  2  0
  4 16  1  0
  5  6  1  0
  5 17  1  0
  6  7  1  0
  8  7  2  0
  7  9  1  0
  8 18  1  0
  9 19  1  0
  9 20  1  0
 10 13  1  1
 10 12  1  0
 10 11  1  0
M  END
