
     RDKit          3D

 15 14  0  0  0  0  0  0  0  0999 V2000
   -1.8074   -1.2751   -0.5837 O   0  0  0  0  0  0  0  0  0  0  0  0
   -1.5642   -0.2767    0.0474 C   0  0  0  0  0  0  0  0  0  0  0  0
   -0.1866    0.3216    0.2276 C   0  0  1  0  0  0  0  0  0  0  0  0
    0.8752   -0.7070   -0.1458 C   0  0  0  0  0  0  0  0  0  0  0  0
    2.5181   -0.0831    0.3482 S   0  0  0  0  0  0  0  0  0  0  0  0
   -0.0768    1.6081   -0.5995 C   0  0  0  0  0  0  0  0  0  0  0  0
   -2.4990    0.4461    0.6517 O   0  0  0  0  0  0  0  0  0  0  0  0
   -0.0778    0.5791    1.2865 H   0  0  0  0  0  0  0  0  0  0  0  0
   -3.3739    0.0626    0.4884 H   0  0  0  0  0  0  0  0  0  0  0  0
    0.6941   -1.6494    0.3687 H   0  0  0  0  0  0  0  0  0  0  0  0
    0.8680   -0.8938   -1.2192 H   0  0  0  0  0  0  0  0  0  0  0  0
   -0.8261    2.3406   -0.3039 H   0  0  0  0  0  0  0  0  0  0  0  0
    0.9013    2.0663   -0.4621 H   0  0  0  0  0  0  0  0  0  0  0  0
   -0.2024    1.3981   -1.6628 H   0  0  0  0  0  0  0  0  0  0  0  0
    3.2265   -1.1301   -0.0866 H   0  0  0  0  0  0  0  0  0  0  0  0
  1  2  2  0
  2  3  1  0
  2  7  1  0
  3  4  1  0
  3  6  1  0
  4  5  1  0
  3  8  1  1
  7  9  1  0
  4 10  1  0
  4 11  1  0
  6 12  1  0
  6 13  1  0
  6 14  1  0
  5 15  1  0
M  END
