
     RDKit          3D

 19 19  0  0  0  0  0  0  0  0999 V2000
   -0.5734    0.2969   -0.1209 C   0  0  0  0  0  0  0  0  0  0  0  0
   -2.0629    0.3356   -0.2413 C   0  0  0  0  0  0  0  0  0  0  0  0
    0.1063   -0.8989    0.0717 C   0  0  0  0  0  0  0  0  0  0  0  0
    1.4821   -0.9677    0.1449 C   0  0  0  0  0  0  0  0  0  0  0  0
   -2.6485    1.3824    0.3578 N   0  0  0  0  0  0  0  0  0  0  0  0
    3.7408    0.1198    0.0418 C   0  0  0  0  0  0  0  0  0  0  0  0
   -2.6818   -0.5166   -0.8604 O   0  0  0  0  0  0  0  0  0  0  0  0
    2.2443    0.1890    0.0033 C   0  0  0  0  0  0  0  0  0  0  0  0
    1.5830    1.3988   -0.1952 C   0  0  0  0  0  0  0  0  0  0  0  0
    0.2002    1.4491   -0.2516 C   0  0  0  0  0  0  0  0  0  0  0  0
   -0.5871   -2.0320    0.2360 F   0  0  0  0  0  0  0  0  0  0  0  0
    1.9577   -1.9253    0.3199 H   0  0  0  0  0  0  0  0  0  0  0  0
   -2.1404    2.0186    0.9474 H   0  0  0  0  0  0  0  0  0  0  0  0
   -3.6468    1.5035    0.2984 H   0  0  0  0  0  0  0  0  0  0  0  0
    4.1382   -0.1380   -0.9419 H   0  0  0  0  0  0  0  0  0  0  0  0
    4.1768    1.0749    0.3307 H   0  0  0  0  0  0  0  0  0  0  0  0
    4.0879   -0.6411    0.7399 H   0  0  0  0  0  0  0  0  0  0  0  0
    2.1544    2.3113   -0.3097 H   0  0  0  0  0  0  0  0  0  0  0  0
   -0.2851    2.4020   -0.4212 H   0  0  0  0  0  0  0  0  0  0  0  0
 11  3  1  0
  4  3  1  0
  4  8  2  0
  6  8  1  0
  3  1  2  0
  5  2  1  0
  8  9  1  0
  1  2  1  0
  1 10  1  0
  9 10  2  0
  2  7  2  0
  4 12  1  0
  5 13  1  0
  5 14  1  0
  6 15  1  0
  6 16  1  0
  6 17  1  0
  9 18  1  0
 10 19  1  0
M  END
