
     RDKit          3D

  8  7  0  0  0  0  0  0  0  0999 V2000
    0.7552    0.0443    0.0041 C   0  0  0  0  0  0  0  0  0  0  0  0
   -0.7659   -0.0004    0.0089 C   0  0  0  0  0  0  0  0  0  0  0  0
    1.1565    0.0322    1.0181 H   0  0  0  0  0  0  0  0  0  0  0  0
    1.1765   -0.8111   -0.5250 H   0  0  0  0  0  0  0  0  0  0  0  0
    1.1251    0.9466   -0.4839 H   0  0  0  0  0  0  0  0  0  0  0  0
   -1.1873    0.8605    0.5290 H   0  0  0  0  0  0  0  0  0  0  0  0
   -1.1665    0.0012   -1.0050 H   0  0  0  0  0  0  0  0  0  0  0  0
   -1.1363   -0.8976    0.5055 H   0  0  0  0  0  0  0  0  0  0  0  0
  1  2  1  0
  1  3  1  0
  1  4  1  0
  1  5  1  0
  2  6  1  0
  2  7  1  0
  2  8  1  0
M  END
