
     RDKit          3D

 33 34  0  0  0  0  0  0  0  0999 V2000
    2.4648    1.9102    0.3958 O   0  0  0  0  0  0  0  0  0  0  0  0
   -6.8073   -0.8564    0.3416 N   0  0  0  0  0  0  0  0  0  0  0  0
   -4.5833   -0.0622    0.0494 C   0  0  0  0  0  0  0  0  0  0  0  0
   -6.4674    1.4411   -0.0588 N   0  0  0  0  0  0  0  0  0  0  0  0
   -4.0850   -1.3249   -0.2589 C   0  0  0  0  0  0  0  0  0  0  0  0
    0.4697    0.1181    0.0916 N   0  0  0  0  0  0  0  0  0  0  0  0
   -2.7205   -1.5472   -0.3207 C   0  0  0  0  0  0  0  0  0  0  0  0
    1.7675   -0.2076   -0.0100 N   0  0  0  0  0  0  0  0  0  0  0  0
   -1.8179   -0.5151   -0.0645 C   0  0  0  0  0  0  0  0  0  0  0  0
    5.7571   -1.4804    0.3559 N   0  0  0  0  0  0  0  0  0  0  0  0
   -0.3871   -0.7903   -0.1487 C   0  0  0  0  0  0  0  0  0  0  0  0
    2.7213    0.7428    0.1793 C   0  0  0  0  0  0  0  0  0  0  0  0
    4.1244    0.2511    0.0885 C   0  0  0  0  0  0  0  0  0  0  0  0
    4.5046   -1.0498    0.4099 C   0  0  0  0  0  0  0  0  0  0  0  0
    6.6947   -0.6228   -0.0273 C   0  0  0  0  0  0  0  0  0  0  0  0
    6.4289    0.6996   -0.3555 C   0  0  0  0  0  0  0  0  0  0  0  0
    5.1225    1.1458   -0.2870 C   0  0  0  0  0  0  0  0  0  0  0  0
   -2.3161    0.7482    0.2587 C   0  0  0  0  0  0  0  0  0  0  0  0
   -3.6795    0.9699    0.3117 C   0  0  0  0  0  0  0  0  0  0  0  0
   -7.7894   -0.5947    0.3238 H   0  0  0  0  0  0  0  0  0  0  0  0
   -7.4564    1.6013   -0.1663 H   0  0  0  0  0  0  0  0  0  0  0  0
   -5.8979    2.0618   -0.6099 H   0  0  0  0  0  0  0  0  0  0  0  0
   -4.7743   -2.1332   -0.4602 H   0  0  0  0  0  0  0  0  0  0  0  0
   -2.3520   -2.5334   -0.5758 H   0  0  0  0  0  0  0  0  0  0  0  0
    2.0261   -1.1422   -0.3061 H   0  0  0  0  0  0  0  0  0  0  0  0
   -0.0969   -1.8050   -0.4310 H   0  0  0  0  0  0  0  0  0  0  0  0
    3.7747   -1.7765    0.7512 H   0  0  0  0  0  0  0  0  0  0  0  0
    7.7093   -1.0020   -0.0705 H   0  0  0  0  0  0  0  0  0  0  0  0
    7.2313    1.3595   -0.6543 H   0  0  0  0  0  0  0  0  0  0  0  0
    4.8767    2.1709   -0.5303 H   0  0  0  0  0  0  0  0  0  0  0  0
   -1.6328    1.5601    0.4700 H   0  0  0  0  0  0  0  0  0  0  0  0
   -4.0339    1.9565    0.5805 H   0  0  0  0  0  0  0  0  0  0  0  0
   -6.0565    0.1498    0.1047 C   0  0  0  0  0  0  0  0  0  0  0  0
  1 12  2  0
 33  2  2  0
 33  3  1  0
 33  4  1  0
  3  5  2  0
  3 19  1  0
  5  7  1  0
  6  8  1  0
  6 11  2  0
  7  9  2  0
  8 12  1  0
  9 11  1  0
  9 18  1  0
 10 14  2  0
 10 15  1  0
 12 13  1  0
 13 14  1  0
 13 17  2  0
 15 16  2  0
 16 17  1  0
 18 19  2  0
  2 20  1  0
  4 21  1  0
  4 22  1  0
  5 23  1  0
  7 24  1  0
  8 25  1  0
 11 26  1  0
 14 27  1  0
 15 28  1  0
 16 29  1  0
 17 30  1  0
 18 31  1  0
 19 32  1  0
M  END
