
     RDKit          3D

 31 32  0  0  0  0  0  0  0  0999 V2000
   -6.7271    0.8475    0.1226 C   0  0  0  0  0  0  0  0  0  0  0  0
   -5.7242    0.1831    0.1149 C   0  0  0  0  0  0  0  0  0  0  0  0
   -4.4996   -0.6066    0.1008 C   0  0  0  0  0  0  0  0  0  0  0  0
   -3.2542    0.2352   -0.1877 C   0  0  0  0  0  0  0  0  0  0  0  0
   -1.9883   -0.6111   -0.2041 C   0  0  0  0  0  0  0  0  0  0  0  0
   -0.7479    0.2203   -0.5076 C   0  0  0  0  0  0  0  0  0  0  0  0
    0.5220   -0.6031   -0.6213 C   0  0  2  0  0  0  0  0  0  0  0  0
    1.0123   -1.3713    0.9572 S   0  0  0  0  0  0  0  0  0  0  0  0
    2.6170   -1.7902    0.2283 C   0  0  0  0  0  0  0  0  0  0  0  0
    3.0316   -0.5923   -0.6361 C   0  0  1  0  0  0  0  0  0  0  0  0
    1.7561    0.1946   -1.0575 C   0  0  2  0  0  0  0  0  0  0  0  0
    1.9033    1.4403   -0.3472 N   0  0  0  0  0  0  0  0  0  0  0  0
    3.1110    1.5670    0.2705 C   0  0  0  0  0  0  0  0  0  0  0  0
    3.5136    2.5483    0.8762 O   0  0  0  0  0  0  0  0  0  0  0  0
    3.7843    0.4054    0.0775 N   0  0  0  0  0  0  0  0  0  0  0  0
   -7.6174    1.4331    0.1359 H   0  0  0  0  0  0  0  0  0  0  0  0
   -4.3909   -1.1115    1.0649 H   0  0  0  0  0  0  0  0  0  0  0  0
   -4.5936   -1.3969   -0.6495 H   0  0  0  0  0  0  0  0  0  0  0  0
   -3.3743    0.7394   -1.1503 H   0  0  0  0  0  0  0  0  0  0  0  0
   -3.1653    1.0198    0.5681 H   0  0  0  0  0  0  0  0  0  0  0  0
   -1.8768   -1.1136    0.7622 H   0  0  0  0  0  0  0  0  0  0  0  0
   -2.0868   -1.4034   -0.9533 H   0  0  0  0  0  0  0  0  0  0  0  0
   -0.8945    0.7433   -1.4592 H   0  0  0  0  0  0  0  0  0  0  0  0
   -0.6199    0.9915    0.2566 H   0  0  0  0  0  0  0  0  0  0  0  0
    0.3685   -1.4035   -1.3533 H   0  0  0  0  0  0  0  0  0  0  0  0
    3.3439   -2.0018    1.0119 H   0  0  0  0  0  0  0  0  0  0  0  0
    2.5164   -2.6824   -0.3915 H   0  0  0  0  0  0  0  0  0  0  0  0
    3.5877   -0.9525   -1.5041 H   0  0  0  0  0  0  0  0  0  0  0  0
    1.7166    0.3571   -2.1385 H   0  0  0  0  0  0  0  0  0  0  0  0
    1.3851    2.2618   -0.6105 H   0  0  0  0  0  0  0  0  0  0  0  0
    4.6255    0.1918    0.5864 H   0  0  0  0  0  0  0  0  0  0  0  0
  2  1  3  0
  2  3  1  0
  3  4  1  0
  4  5  1  0
  5  6  1  0
  6  7  1  0
  7 11  1  0
  7  8  1  0
 11 12  1  0
 11 10  1  0
 12 13  1  0
  8  9  1  0
 10  9  1  0
 10 15  1  0
 13 15  1  0
 13 14  2  0
  1 16  1  0
  3 17  1  0
  3 18  1  0
  4 19  1  0
  4 20  1  0
  5 21  1  0
  5 22  1  0
  6 23  1  0
  6 24  1  0
  7 25  1  6
  9 26  1  0
  9 27  1  0
 10 28  1  6
 11 29  1  6
 12 30  1  0
 15 31  1  0
M  END
