
     RDKit          3D

 51 53  0  0  0  0  0  0  0  0999 V2000
    9.0727    0.6339   -0.5751 C   0  0  0  0  0  0  0  0  0  0  0  0
    8.2127   -0.4697    0.0256 C   0  0  0  0  0  0  0  0  0  0  0  0
    6.7468   -0.2446   -0.2815 C   0  0  0  0  0  0  0  0  0  0  0  0
    6.0010   -1.3077    0.2923 O   0  0  0  0  0  0  0  0  0  0  0  0
    4.6596   -1.2913    0.1973 C   0  0  0  0  0  0  0  0  0  0  0  0
    3.9813   -2.3459    0.8128 C   0  0  0  0  0  0  0  0  0  0  0  0
    2.6018   -2.4005    0.7795 C   0  0  0  0  0  0  0  0  0  0  0  0
    1.8490   -1.4158    0.1324 C   0  0  0  0  0  0  0  0  0  0  0  0
    2.5385   -0.3786   -0.4887 C   0  0  0  0  0  0  0  0  0  0  0  0
    3.9257   -0.3070   -0.4607 C   0  0  0  0  0  0  0  0  0  0  0  0
    0.3789   -1.5103    0.1075 C   0  0  0  0  0  0  0  0  0  0  0  0
   -0.2773   -2.6553   -0.2466 C   0  0  0  0  0  0  0  0  0  0  0  0
   -1.9727   -2.5052   -0.1093 S   0  0  0  0  0  0  0  0  0  0  0  0
   -1.8381   -0.8834    0.4380 C   0  0  0  0  0  0  0  0  0  0  0  0
   -0.5351   -0.4766    0.5027 C   0  0  0  0  0  0  0  0  0  0  0  0
   -0.1546    0.9005    0.9640 C   0  0  0  0  0  0  0  0  0  0  0  0
   -0.4758    1.9353   -0.1072 C   0  0  0  0  0  0  0  0  0  0  0  0
    0.0535    1.9077   -1.1949 O   0  0  0  0  0  0  0  0  0  0  0  0
   -1.4129    2.8485    0.2800 N   0  0  0  0  0  0  0  0  0  0  0  0
   -1.9719    3.8836   -0.4806 C   0  0  0  0  0  0  0  0  0  0  0  0
   -1.3604    4.3651   -1.4862 N   0  0  0  0  0  0  0  0  0  0  0  0
   -3.2026    4.2500   -0.0173 N   0  0  0  0  0  0  0  0  0  0  0  0
   -3.0281   -0.1102    0.8254 C   0  0  0  0  0  0  0  0  0  0  0  0
   -3.3989   -0.0317    2.1675 C   0  0  0  0  0  0  0  0  0  0  0  0
   -4.4935    0.7192    2.5665 C   0  0  0  0  0  0  0  0  0  0  0  0
   -5.2441    1.4001    1.6177 C   0  0  0  0  0  0  0  0  0  0  0  0
   -4.8981    1.3357    0.2763 C   0  0  0  0  0  0  0  0  0  0  0  0
   -3.7968    0.5855   -0.1060 C   0  0  0  0  0  0  0  0  0  0  0  0
   -3.3546    0.5435   -1.7763 Cl  0  0  0  0  0  0  0  0  0  0  0  0
   10.1255    0.4773   -0.3429 H   0  0  0  0  0  0  0  0  0  0  0  0
    8.9750    0.6666   -1.6614 H   0  0  0  0  0  0  0  0  0  0  0  0
    8.7916    1.6142   -0.1872 H   0  0  0  0  0  0  0  0  0  0  0  0
    8.5238   -1.4390   -0.3716 H   0  0  0  0  0  0  0  0  0  0  0  0
    8.3557   -0.5059    1.1084 H   0  0  0  0  0  0  0  0  0  0  0  0
    6.4187    0.7167    0.1312 H   0  0  0  0  0  0  0  0  0  0  0  0
    6.5883   -0.2098   -1.3659 H   0  0  0  0  0  0  0  0  0  0  0  0
    4.5446   -3.1157    1.3256 H   0  0  0  0  0  0  0  0  0  0  0  0
    2.0965   -3.2175    1.2792 H   0  0  0  0  0  0  0  0  0  0  0  0
    1.9905    0.3903   -1.0177 H   0  0  0  0  0  0  0  0  0  0  0  0
    4.4110    0.5197   -0.9611 H   0  0  0  0  0  0  0  0  0  0  0  0
    0.1610   -3.5793   -0.5922 H   0  0  0  0  0  0  0  0  0  0  0  0
   -0.6523    1.1304    1.9080 H   0  0  0  0  0  0  0  0  0  0  0  0
    0.9173    0.9505    1.1630 H   0  0  0  0  0  0  0  0  0  0  0  0
   -1.7996    2.7139    1.2003 H   0  0  0  0  0  0  0  0  0  0  0  0
   -1.9326    5.0761   -1.9299 H   0  0  0  0  0  0  0  0  0  0  0  0
   -3.5358    3.9128    0.8702 H   0  0  0  0  0  0  0  0  0  0  0  0
   -3.5400    5.1648   -0.2653 H   0  0  0  0  0  0  0  0  0  0  0  0
   -2.8131   -0.5702    2.9014 H   0  0  0  0  0  0  0  0  0  0  0  0
   -4.7616    0.7691    3.6131 H   0  0  0  0  0  0  0  0  0  0  0  0
   -6.1021    1.9869    1.9175 H   0  0  0  0  0  0  0  0  0  0  0  0
   -5.4724    1.8739   -0.4647 H   0  0  0  0  0  0  0  0  0  0  0  0
  1  2  1  0
  2  3  1  0
  3  4  1  0
 22 20  1  0
  4  5  1  0
 19 20  1  0
 19 17  1  0
 29 28  1  0
 20 21  2  0
  5  6  2  0
  5 10  1  0
  6  7  1  0
 16 17  1  0
 16 15  1  0
 10  9  2  0
 17 18  2  0
  7  8  2  0
 27 28  2  0
 27 26  1  0
  9  8  1  0
 28 23  1  0
  8 11  1  0
 15 11  1  0
 15 14  2  0
 26 25  2  0
 11 12  2  0
 23 14  1  0
 23 24  2  0
 14 13  1  0
 25 24  1  0
 12 13  1  0
  1 30  1  0
  1 31  1  0
  1 32  1  0
  2 33  1  0
  2 34  1  0
  3 35  1  0
  3 36  1  0
  6 37  1  0
  7 38  1  0
  9 39  1  0
 10 40  1  0
 12 41  1  0
 16 42  1  0
 16 43  1  0
 19 44  1  0
 21 45  1  0
 22 46  1  0
 22 47  1  0
 24 48  1  0
 25 49  1  0
 26 50  1  0
 27 51  1  0
M  END
