
     RDKit          3D

 41 44  0  0  0  0  0  0  0  0999 V2000
    7.7383   -2.9080   -0.1675 C   0  0  0  0  0  0  0  0  0  0  0  0
    2.0932    0.5749   -0.0145 C   0  0  0  0  0  0  0  0  0  0  0  0
    6.7885   -0.5930    0.1382 C   0  0  0  0  0  0  0  0  0  0  0  0
    5.2819   -2.3651   -0.3692 C   0  0  0  0  0  0  0  0  0  0  0  0
    5.7306    0.2971    0.1888 C   0  0  0  0  0  0  0  0  0  0  0  0
    4.2095   -1.4860   -0.3291 C   0  0  0  0  0  0  0  0  0  0  0  0
   -3.8551    1.5565   -0.3287 C   0  0  0  0  0  0  0  0  0  0  0  0
    0.2529    3.9104    0.3863 C   0  0  0  0  0  0  0  0  0  0  0  0
   -1.0527    3.5409   -0.3224 C   0  0  0  0  0  0  0  0  0  0  0  0
    1.4154    2.9625    0.1607 C   0  0  0  0  0  0  0  0  0  0  0  0
    1.1158    1.5415    0.0452 C   0  0  0  0  0  0  0  0  0  0  0  0
    6.5880   -1.9447   -0.1369 C   0  0  0  0  0  0  0  0  0  0  0  0
   -4.7493    0.4942   -0.3059 C   0  0  0  0  0  0  0  0  0  0  0  0
    4.4271   -0.1422   -0.0407 C   0  0  0  0  0  0  0  0  0  0  0  0
   -4.2803   -0.8233   -0.1503 C   0  0  0  0  0  0  0  0  0  0  0  0
   -2.9210   -1.0955   -0.0176 C   0  0  0  0  0  0  0  0  0  0  0  0
   -1.3055    2.0822   -0.1672 C   0  0  0  0  0  0  0  0  0  0  0  0
   -0.2815    1.2079   -0.0087 C   0  0  0  0  0  0  0  0  0  0  0  0
   -2.4967    1.2915   -0.1939 C   0  0  0  0  0  0  0  0  0  0  0  0
   -2.0566   -0.0269   -0.0429 C   0  0  0  0  0  0  0  0  0  0  0  0
    3.4023    0.8054    0.0208 N   0  0  0  0  0  0  0  0  0  0  0  0
   -6.0555    0.7762   -0.4353 O   0  0  0  0  0  0  0  0  0  0  0  0
   -0.7105   -0.0792    0.0718 O   0  0  0  0  0  0  0  0  0  0  0  0
   -5.4223   -2.1164   -0.1252 Cl  0  0  0  0  0  0  0  0  0  0  0  0
   -2.3251   -2.6907    0.1679 Cl  0  0  0  0  0  0  0  0  0  0  0  0
    8.1051   -3.1167    0.8394 H   0  0  0  0  0  0  0  0  0  0  0  0
    7.4500   -3.8581   -0.6156 H   0  0  0  0  0  0  0  0  0  0  0  0
    8.5784   -2.5101   -0.7376 H   0  0  0  0  0  0  0  0  0  0  0  0
    1.7942   -0.4630   -0.0879 H   0  0  0  0  0  0  0  0  0  0  0  0
    7.7911   -0.2244    0.3198 H   0  0  0  0  0  0  0  0  0  0  0  0
    5.0876   -3.4063   -0.5961 H   0  0  0  0  0  0  0  0  0  0  0  0
    5.9172    1.3417    0.4084 H   0  0  0  0  0  0  0  0  0  0  0  0
    3.2198   -1.8687   -0.5396 H   0  0  0  0  0  0  0  0  0  0  0  0
   -4.2260    2.5660   -0.4507 H   0  0  0  0  0  0  0  0  0  0  0  0
    0.5682    4.9199    0.1226 H   0  0  0  0  0  0  0  0  0  0  0  0
    0.0779    3.9063    1.4688 H   0  0  0  0  0  0  0  0  0  0  0  0
   -1.8694    4.1312    0.0958 H   0  0  0  0  0  0  0  0  0  0  0  0
   -0.9929    3.8032   -1.3833 H   0  0  0  0  0  0  0  0  0  0  0  0
    3.6706    1.7811    0.1085 H   0  0  0  0  0  0  0  0  0  0  0  0
   -6.5956   -0.0239   -0.4188 H   0  0  0  0  0  0  0  0  0  0  0  0
    2.5669    3.3875    0.1535 O   0  0  0  0  0  0  0  0  0  0  0  0
  1 12  1  0
 12  3  2  0
 12  4  1  0
  3  5  1  0
  4  6  2  0
  5 14  2  0
  6 14  1  0
 14 21  1  0
 21  2  1  0
  2 11  2  0
 25 16  1  0
 11 18  1  0
 11 10  1  0
 23 18  1  0
 23 20  1  0
 41 10  2  0
 18 17  2  0
 10  8  1  0
 16 20  2  0
 16 15  1  0
 20 19  1  0
 17 19  1  0
 17  9  1  0
  8  9  1  0
 24 15  1  0
 15 13  2  0
 19  7  2  0
 13  7  1  0
 13 22  1  0
  1 26  1  0
  1 27  1  0
  1 28  1  0
  2 29  1  0
  3 30  1  0
  4 31  1  0
  5 32  1  0
  6 33  1  0
  7 34  1  0
  8 35  1  0
  8 36  1  0
  9 37  1  0
  9 38  1  0
 21 39  1  0
 22 40  1  0
M  END
