
     RDKit          3D

 38 40  0  0  0  0  0  0  0  0999 V2000
   -1.1491    1.4262   -0.4022 C   0  0  2  0  0  0  0  0  0  0  0  0
   -2.6212    1.4395   -0.0177 C   0  0  2  0  0  0  0  0  0  0  0  0
   -3.3094    0.1952   -0.5599 C   0  0  1  0  0  0  0  0  0  0  0  0
   -2.5873   -1.0536   -0.0474 C   0  0  2  0  0  0  0  0  0  0  0  0
   -1.2097   -1.0047   -0.4009 O   0  0  0  0  0  0  0  0  0  0  0  0
   -0.4732    0.1119   -0.0002 C   0  0  1  0  0  0  0  0  0  0  0  0
    0.8156    0.0201   -0.6384 N   0  0  0  0  0  0  0  0  0  0  0  0
    1.7043   -0.0076    0.2764 C   0  0  0  0  0  0  0  0  0  0  0  0
    1.2024    0.0316    1.5677 N   0  0  0  0  0  0  0  0  0  0  0  0
   -0.1568    0.0858    1.5166 C   0  0  0  0  0  0  0  0  0  0  0  0
   -0.9192    0.0906    2.4521 O   0  0  0  0  0  0  0  0  0  0  0  0
    3.1443   -0.0873    0.0222 C   0  0  0  0  0  0  0  0  0  0  0  0
    4.0803    0.1317    1.0313 C   0  0  0  0  0  0  0  0  0  0  0  0
    5.4369    0.0571    0.7514 C   0  0  0  0  0  0  0  0  0  0  0  0
    5.8672   -0.2375   -0.5344 C   0  0  0  0  0  0  0  0  0  0  0  0
    4.9371   -0.4551   -1.5451 C   0  0  0  0  0  0  0  0  0  0  0  0
    3.5834   -0.3779   -1.2705 C   0  0  0  0  0  0  0  0  0  0  0  0
   -0.4194    2.4532    0.2134 O   0  0  0  0  0  0  0  0  0  0  0  0
   -3.1453   -2.3183   -0.6633 C   0  0  0  0  0  0  0  0  0  0  0  0
   -4.6489    0.2275   -0.1225 O   0  0  0  0  0  0  0  0  0  0  0  0
   -3.1650    2.6204   -0.5585 O   0  0  0  0  0  0  0  0  0  0  0  0
   -2.5214   -3.4306   -0.0700 O   0  0  0  0  0  0  0  0  0  0  0  0
   -1.0855    1.4924   -1.4995 H   0  0  0  0  0  0  0  0  0  0  0  0
   -2.7134    1.4394    1.0779 H   0  0  0  0  0  0  0  0  0  0  0  0
   -3.2491    0.2135   -1.6579 H   0  0  0  0  0  0  0  0  0  0  0  0
   -2.7107   -1.1123    1.0417 H   0  0  0  0  0  0  0  0  0  0  0  0
    1.7317   -0.0759    2.4200 H   0  0  0  0  0  0  0  0  0  0  0  0
    3.7738    0.3786    2.0393 H   0  0  0  0  0  0  0  0  0  0  0  0
    6.1563    0.2324    1.5397 H   0  0  0  0  0  0  0  0  0  0  0  0
    6.9258   -0.2970   -0.7503 H   0  0  0  0  0  0  0  0  0  0  0  0
    5.2693   -0.6871   -2.5481 H   0  0  0  0  0  0  0  0  0  0  0  0
    2.8578   -0.5477   -2.0544 H   0  0  0  0  0  0  0  0  0  0  0  0
   -0.8249    3.2971   -0.0125 H   0  0  0  0  0  0  0  0  0  0  0  0
   -4.2288   -2.3303   -0.4964 H   0  0  0  0  0  0  0  0  0  0  0  0
   -2.9870   -2.2886   -1.7504 H   0  0  0  0  0  0  0  0  0  0  0  0
   -5.2092   -0.1803   -0.7881 H   0  0  0  0  0  0  0  0  0  0  0  0
   -4.0677    2.7125   -0.2369 H   0  0  0  0  0  0  0  0  0  0  0  0
   -2.9288   -4.2253   -0.4260 H   0  0  0  0  0  0  0  0  0  0  0  0
 21  2  1  0
 20  3  1  0
  2  3  1  0
  2  1  1  0
  3  4  1  0
 18  1  1  0
  1  6  1  0
 22 19  1  0
  4 19  1  0
  4  5  1  0
  6  5  1  0
  6  7  1  6
  6 10  1  0
  7  8  2  0
 11 10  2  0
 10  9  1  0
  8  9  1  0
  8 12  1  0
 12 13  2  0
 12 17  1  0
 13 14  1  0
 17 16  2  0
 14 15  2  0
 16 15  1  0
  1 23  1  6
  2 24  1  1
  3 25  1  6
  4 26  1  1
  9 27  1  0
 13 28  1  0
 14 29  1  0
 15 30  1  0
 16 31  1  0
 17 32  1  0
 18 33  1  0
 19 34  1  0
 19 35  1  0
 20 36  1  0
 21 37  1  0
 22 38  1  0
M  END
