
     RDKit          3D

 47 48  0  0  0  0  0  0  0  0999 V2000
   -0.7879   -1.0723    2.0749 O   0  0  0  0  0  0  0  0  0  0  0  0
   -0.8601    0.1007    1.8469 C   0  0  0  0  0  0  0  0  0  0  0  0
   -0.6771    0.7050    0.4498 C   0  0  2  0  0  0  0  0  0  0  0  0
   -0.4531    2.0668    0.7035 O   0  0  0  0  0  0  0  0  0  0  0  0
   -0.1076    2.8913   -0.3913 C   0  0  0  0  0  0  0  0  0  0  0  0
   -1.9751    0.5276   -0.3621 C   0  0  1  0  0  0  0  0  0  0  0  0
   -2.4030   -1.2065   -0.7131 S   0  0  0  0  0  0  0  0  0  0  0  0
   -4.1176   -1.0651   -0.0511 C   0  0  1  0  0  0  0  0  0  0  0  0
   -5.0545   -1.8322   -0.9759 C   0  0  0  0  0  0  0  0  0  0  0  0
   -4.2046   -1.6432    1.3575 C   0  0  0  0  0  0  0  0  0  0  0  0
   -4.3467    0.4642    0.0007 C   0  0  2  0  0  0  0  0  0  0  0  0
   -4.8715    1.0256   -1.3142 C   0  0  0  0  0  0  0  0  0  0  0  0
   -6.1959    1.0098   -1.3581 O   0  0  0  0  0  0  0  0  0  0  0  0
   -4.1791    1.4510   -2.2041 O   0  0  0  0  0  0  0  0  0  0  0  0
   -3.0876    1.0340    0.4075 N   0  0  0  0  0  0  0  0  0  0  0  0
    0.4006    0.0772   -0.2560 N   0  0  0  0  0  0  0  0  0  0  0  0
    1.6277   -0.0521    0.2922 C   0  0  0  0  0  0  0  0  0  0  0  0
    1.8832    0.2938    1.4256 O   0  0  0  0  0  0  0  0  0  0  0  0
    2.6683   -0.6789   -0.6329 C   0  0  2  0  0  0  0  0  0  0  0  0
    2.7295   -2.1718   -0.3605 C   0  0  0  0  0  0  0  0  0  0  0  0
    2.1734   -2.7205    0.5531 O   0  0  0  0  0  0  0  0  0  0  0  0
    3.4780   -2.7880   -1.2600 O   0  0  0  0  0  0  0  0  0  0  0  0
    4.0208   -0.0454   -0.4658 C   0  0  0  0  0  0  0  0  0  0  0  0
    4.6146    0.7953   -1.4500 C   0  0  0  0  0  0  0  0  0  0  0  0
    5.8334    1.2667   -1.0723 C   0  0  0  0  0  0  0  0  0  0  0  0
    6.2716    0.6903    0.4794 S   0  0  0  0  0  0  0  0  0  0  0  0
    4.8122   -0.1863    0.6361 C   0  0  0  0  0  0  0  0  0  0  0  0
   -1.0945    0.8450    2.6257 H   0  0  0  0  0  0  0  0  0  0  0  0
   -0.9050    2.9728   -1.1347 H   0  0  0  0  0  0  0  0  0  0  0  0
    0.0764    3.8826    0.0169 H   0  0  0  0  0  0  0  0  0  0  0  0
    0.8021    2.5557   -0.8957 H   0  0  0  0  0  0  0  0  0  0  0  0
   -1.8393    1.0221   -1.3309 H   0  0  0  0  0  0  0  0  0  0  0  0
   -4.9765   -1.5159   -2.0155 H   0  0  0  0  0  0  0  0  0  0  0  0
   -4.8161   -2.8955   -0.9399 H   0  0  0  0  0  0  0  0  0  0  0  0
   -6.0900   -1.7205   -0.6521 H   0  0  0  0  0  0  0  0  0  0  0  0
   -5.2414   -1.6214    1.7016 H   0  0  0  0  0  0  0  0  0  0  0  0
   -3.8702   -2.6803    1.3680 H   0  0  0  0  0  0  0  0  0  0  0  0
   -3.5985   -1.0836    2.0658 H   0  0  0  0  0  0  0  0  0  0  0  0
   -5.0942    0.6717    0.7720 H   0  0  0  0  0  0  0  0  0  0  0  0
   -6.5094    1.3441   -2.2125 H   0  0  0  0  0  0  0  0  0  0  0  0
   -3.1080    2.0459    0.4295 H   0  0  0  0  0  0  0  0  0  0  0  0
    0.2763   -0.1517   -1.2309 H   0  0  0  0  0  0  0  0  0  0  0  0
    2.3625   -0.5531   -1.6765 H   0  0  0  0  0  0  0  0  0  0  0  0
    3.5214   -3.7370   -1.0660 H   0  0  0  0  0  0  0  0  0  0  0  0
    4.1477    1.0350   -2.3955 H   0  0  0  0  0  0  0  0  0  0  0  0
    6.4929    1.9198   -1.6220 H   0  0  0  0  0  0  0  0  0  0  0  0
    4.6160   -0.7580    1.5303 H   0  0  0  0  0  0  0  0  0  0  0  0
 25 24  2  0
 25 26  1  0
 14 12  2  0
 24 23  1  0
  8 10  1  1
 26 27  1  0
 12 13  1  0
 12 11  1  0
 23 27  2  0
 23 19  1  0
  8 11  1  0
  8  9  1  0
  8  7  1  0
 11 15  1  0
 21 20  2  0
 19 20  1  0
 19 17  1  0
 20 22  1  0
  7  6  1  0
 16 17  1  0
 16  3  1  0
 17 18  2  0
 15  6  1  0
  1  2  2  0
  6  3  1  0
  3  2  1  0
  3  4  1  1
  4  5  1  0
  2 28  1  0
  5 29  1  0
  5 30  1  0
  5 31  1  0
  6 32  1  6
  9 33  1  0
  9 34  1  0
  9 35  1  0
 10 36  1  0
 10 37  1  0
 10 38  1  0
 11 39  1  1
 13 40  1  0
 15 41  1  0
 16 42  1  0
 19 43  1  6
 22 44  1  0
 24 45  1  0
 25 46  1  0
 27 47  1  0
M  END
