
     RDKit          3D

 59 63  0  0  0  0  0  0  0  0999 V2000
    4.7196   -0.4291   -0.1856 C   0  0  0  0  0  0  0  0  0  0  0  0
    2.7401    1.0819   -0.3698 C   0  0  0  0  0  0  0  0  0  0  0  0
   -1.6377    1.3509    0.3463 C   0  0  0  0  0  0  0  0  0  0  0  0
   -2.2708    0.2113   -0.1127 C   0  0  0  0  0  0  0  0  0  0  0  0
   -3.0850   -0.5253    0.7442 C   0  0  0  0  0  0  0  0  0  0  0  0
   -3.2209   -0.0503    2.0426 C   0  0  0  0  0  0  0  0  0  0  0  0
   -1.8540    1.7145    1.6747 C   0  0  0  0  0  0  0  0  0  0  0  0
    6.2397   -0.8212   -1.7918 C   0  0  0  0  0  0  0  0  0  0  0  0
    6.9310   -1.6929   -0.9887 C   0  0  0  0  0  0  0  0  0  0  0  0
    6.3975   -1.8915    0.3039 C   0  0  0  0  0  0  0  0  0  0  0  0
   -3.7963   -1.7332    0.2887 C   0  0  0  0  0  0  0  0  0  0  0  0
   -4.7006   -1.5386   -0.8246 C   0  0  0  0  0  0  0  0  0  0  0  0
   -5.2551   -3.8642   -0.6403 C   0  0  0  0  0  0  0  0  0  0  0  0
   -4.3978   -4.0534    0.3908 C   0  0  0  0  0  0  0  0  0  0  0  0
   -3.6380   -2.9616    0.8799 C   0  0  0  0  0  0  0  0  0  0  0  0
    3.5927    0.1836    0.2783 N   0  0  0  0  0  0  0  0  0  0  0  0
    1.3885    1.0232   -0.0493 C   0  0  0  0  0  0  0  0  0  0  0  0
    0.5425    1.9553   -0.6345 C   0  0  0  0  0  0  0  0  0  0  0  0
    0.9900    2.9350   -1.5386 C   0  0  0  0  0  0  0  0  0  0  0  0
    2.3522    2.9727   -1.8445 C   0  0  0  0  0  0  0  0  0  0  0  0
    3.2140    2.0641   -1.2628 C   0  0  0  0  0  0  0  0  0  0  0  0
   -0.1584    3.6949   -1.9306 C   0  0  0  0  0  0  0  0  0  0  0  0
   -1.2372    3.1768   -1.2803 C   0  0  0  0  0  0  0  0  0  0  0  0
   -0.8151    2.1143   -0.4962 N   0  0  0  0  0  0  0  0  0  0  0  0
   -2.6141    1.0416    2.4968 N   0  0  0  0  0  0  0  0  0  0  0  0
   -1.0955    3.1435    2.2842 Cl  0  0  0  0  0  0  0  0  0  0  0  0
    5.1333   -0.1759   -1.4235 N   0  0  0  0  0  0  0  0  0  0  0  0
    5.2934   -1.2508    0.6902 N   0  0  0  0  0  0  0  0  0  0  0  0
   -5.4077   -2.6577   -1.2320 N   0  0  0  0  0  0  0  0  0  0  0  0
   -4.8679   -0.4660   -1.4002 O   0  0  0  0  0  0  0  0  0  0  0  0
   -6.3362   -2.4981   -2.3415 C   0  0  0  0  0  0  0  0  0  0  0  0
   -2.6978   -3.2134    2.0179 C   0  0  0  0  0  0  0  0  0  0  0  0
    6.9621   -2.7206    1.1914 N   0  0  0  0  0  0  0  0  0  0  0  0
    8.1665   -3.4723    0.9494 C   0  0  0  0  0  0  0  0  0  0  0  0
   -2.1109   -0.1007   -1.1364 H   0  0  0  0  0  0  0  0  0  0  0  0
   -3.8598   -0.5668    2.7499 H   0  0  0  0  0  0  0  0  0  0  0  0
    6.5901   -0.6253   -2.7999 H   0  0  0  0  0  0  0  0  0  0  0  0
    7.8252   -2.1887   -1.3348 H   0  0  0  0  0  0  0  0  0  0  0  0
   -3.3137    2.7606   -1.6287 H   0  0  0  0  0  0  0  0  0  0  0  0
   -3.0146    3.9093   -0.3310 H   0  0  0  0  0  0  0  0  0  0  0  0
   -2.8025    4.4045   -2.0080 H   0  0  0  0  0  0  0  0  0  0  0  0
   -5.8533   -4.6697   -1.0412 H   0  0  0  0  0  0  0  0  0  0  0  0
   -4.2988   -5.0369    0.8262 H   0  0  0  0  0  0  0  0  0  0  0  0
    3.2717   -0.1728    1.1649 H   0  0  0  0  0  0  0  0  0  0  0  0
    1.0140    0.2682    0.6324 H   0  0  0  0  0  0  0  0  0  0  0  0
    2.7432    3.7160   -2.5282 H   0  0  0  0  0  0  0  0  0  0  0  0
    4.2663    2.1065   -1.4957 H   0  0  0  0  0  0  0  0  0  0  0  0
   -0.1824    4.5268   -2.6171 H   0  0  0  0  0  0  0  0  0  0  0  0
   -5.8100   -2.1829   -3.2399 H   0  0  0  0  0  0  0  0  0  0  0  0
   -6.8212   -3.4504   -2.5318 H   0  0  0  0  0  0  0  0  0  0  0  0
   -7.0960   -1.7572   -2.1022 H   0  0  0  0  0  0  0  0  0  0  0  0
   -3.2370   -3.1954    2.9671 H   0  0  0  0  0  0  0  0  0  0  0  0
   -2.2500   -4.2025    1.9274 H   0  0  0  0  0  0  0  0  0  0  0  0
   -1.8966   -2.4802    2.0777 H   0  0  0  0  0  0  0  0  0  0  0  0
    6.5267   -2.7812    2.0966 H   0  0  0  0  0  0  0  0  0  0  0  0
    9.0270   -2.8238    0.7686 H   0  0  0  0  0  0  0  0  0  0  0  0
    8.3769   -4.0753    1.8279 H   0  0  0  0  0  0  0  0  0  0  0  0
    8.0614   -4.1448    0.0959 H   0  0  0  0  0  0  0  0  0  0  0  0
   -2.6651    3.5800   -1.3119 C   0  0  0  0  0  0  0  0  0  0  0  0
 22 23  2  0
 22 19  1  0
 59 23  1  0
 20 19  2  0
 20 21  1  0
 23 24  1  0
 19 18  1  0
 26  7  1  0
 21  2  2  0
 24 18  1  0
 24  3  1  0
 18 17  2  0
  3  7  1  0
  3  4  2  0
  2 17  1  0
  2 16  1  0
  7 25  2  0
 16  1  1  0
 25  6  1  0
  4  5  1  0
 32 15  1  0
  6  5  2  0
  5 11  1  0
  1 28  2  0
  1 27  1  0
 28 10  1  0
 15 11  2  0
 15 14  1  0
 27  8  2  0
 11 12  1  0
 34 33  1  0
 10 33  1  0
 10  9  2  0
 14 13  2  0
  8  9  1  0
 12 30  2  0
 12 29  1  0
 13 29  1  0
 29 31  1  0
  4 35  1  0
  6 36  1  0
  8 37  1  0
  9 38  1  0
 59 39  1  0
 59 40  1  0
 59 41  1  0
 13 42  1  0
 14 43  1  0
 16 44  1  0
 17 45  1  0
 20 46  1  0
 21 47  1  0
 22 48  1  0
 31 49  1  0
 31 50  1  0
 31 51  1  0
 32 52  1  0
 32 53  1  0
 32 54  1  0
 33 55  1  0
 34 56  1  0
 34 57  1  0
 34 58  1  0
M  END
