
     RDKit          3D

 46 48  0  0  0  0  0  0  0  0999 V2000
   -1.4209    2.0641   -2.0410 C   0  0  0  0  0  0  0  0  0  0  0  0
   -0.8214    2.5934   -3.3404 C   0  0  0  0  0  0  0  0  0  0  0  0
    0.6828    2.3283   -3.3875 C   0  0  2  0  0  0  0  0  0  0  0  0
    1.3829    2.9393   -2.1726 C   0  0  0  0  0  0  0  0  0  0  0  0
    0.7802    2.4112   -0.8743 C   0  0  0  0  0  0  0  0  0  0  0  0
   -0.7244    2.6576   -0.8211 C   0  0  0  0  0  0  0  0  0  0  0  0
    1.9707    2.0094   -5.4734 C   0  0  0  0  0  0  0  0  0  0  0  0
    2.3971    2.8655   -6.6466 C   0  0  0  0  0  0  0  0  0  0  0  0
    2.2909    4.2861   -6.1099 C   0  0  1  0  0  0  0  0  0  0  0  0
    1.1483    4.1597   -5.0857 C   0  0  0  0  0  0  0  0  0  0  0  0
    1.2721    2.7917   -4.6272 N   0  0  0  0  0  0  0  0  0  0  0  0
    3.5543    4.6856   -5.3729 C   0  0  0  0  0  0  0  0  0  0  0  0
    3.7800    6.0231   -5.3417 N   0  0  0  0  0  0  0  0  0  0  0  0
    4.2718    3.8721   -4.8225 O   0  0  0  0  0  0  0  0  0  0  0  0
    2.1900    0.8167   -5.3342 O   0  0  0  0  0  0  0  0  0  0  0  0
    4.8302    6.6488   -4.6437 C   0  0  0  0  0  0  0  0  0  0  0  0
    5.0670    6.3293   -3.3110 C   0  0  0  0  0  0  0  0  0  0  0  0
    6.0789    6.9686   -2.6164 C   0  0  0  0  0  0  0  0  0  0  0  0
    6.8416    7.9443   -3.2364 C   0  0  0  0  0  0  0  0  0  0  0  0
    6.5847    8.2561   -4.5617 C   0  0  0  0  0  0  0  0  0  0  0  0
    5.6015    7.6108   -5.3115 C   0  0  0  0  0  0  0  0  0  0  0  0
    5.3566    7.9217   -6.7570 C   0  0  0  0  0  0  0  0  0  0  0  0
    7.5483    9.5035   -5.2936 Cl  0  0  0  0  0  0  0  0  0  0  0  0
    3.1806    6.6108   -5.9006 H   0  0  0  0  0  0  0  0  0  0  0  0
    2.0390    5.0147   -6.8806 H   0  0  0  0  0  0  0  0  0  0  0  0
    1.2354    4.8699   -4.2613 H   0  0  0  0  0  0  0  0  0  0  0  0
    0.1825    4.3377   -5.5676 H   0  0  0  0  0  0  0  0  0  0  0  0
    3.3835    2.5879   -7.0140 H   0  0  0  0  0  0  0  0  0  0  0  0
    1.6838    2.7146   -7.4621 H   0  0  0  0  0  0  0  0  0  0  0  0
    0.8405    1.2466   -3.3643 H   0  0  0  0  0  0  0  0  0  0  0  0
    1.2789    4.0300   -2.1977 H   0  0  0  0  0  0  0  0  0  0  0  0
    2.4533    2.7251   -2.2210 H   0  0  0  0  0  0  0  0  0  0  0  0
    1.2736    2.8793   -0.0196 H   0  0  0  0  0  0  0  0  0  0  0  0
    0.9743    1.3362   -0.7929 H   0  0  0  0  0  0  0  0  0  0  0  0
   -1.1439    2.2341    0.0945 H   0  0  0  0  0  0  0  0  0  0  0  0
   -0.9138    3.7358   -0.7811 H   0  0  0  0  0  0  0  0  0  0  0  0
   -1.3225    0.9735   -2.0179 H   0  0  0  0  0  0  0  0  0  0  0  0
   -2.4914    2.2786   -2.0124 H   0  0  0  0  0  0  0  0  0  0  0  0
   -1.3058    2.1287   -4.2029 H   0  0  0  0  0  0  0  0  0  0  0  0
   -1.0089    3.6707   -3.4126 H   0  0  0  0  0  0  0  0  0  0  0  0
    7.6211    8.4614   -2.6944 H   0  0  0  0  0  0  0  0  0  0  0  0
    6.2643    6.7198   -1.5804 H   0  0  0  0  0  0  0  0  0  0  0  0
    4.4502    5.5972   -2.8095 H   0  0  0  0  0  0  0  0  0  0  0  0
    6.2571    8.2782   -7.2506 H   0  0  0  0  0  0  0  0  0  0  0  0
    5.0179    7.0391   -7.2968 H   0  0  0  0  0  0  0  0  0  0  0  0
    4.5932    8.6940   -6.8769 H   0  0  0  0  0  0  0  0  0  0  0  0
  1  6  1  0
  1 37  1  0
  1 38  1  0
  1  2  1  0
  2  3  1  0
  2 39  1  0
  2 40  1  0
  3 11  1  0
  3 30  1  1
  3  4  1  0
  4 31  1  0
  4 32  1  0
  4  5  1  0
  5 33  1  0
  5 34  1  0
  5  6  1  0
  6 35  1  0
  6 36  1  0
  7 11  1  0
  7 15  2  0
  7  8  1  0
  8  9  1  0
  8 28  1  0
  8 29  1  0
  9 12  1  0
  9 25  1  6
  9 10  1  0
 10 26  1  0
 10 27  1  0
 10 11  1  0
 12 13  1  0
 12 14  2  0
 13 24  1  0
 13 16  1  0
 16 21  1  0
 16 17  2  0
 17 18  1  0
 17 43  1  0
 18 19  2  0
 18 42  1  0
 19 20  1  0
 19 41  1  0
 20 21  2  0
 20 23  1  0
 21 22  1  0
 22 44  1  0
 22 45  1  0
 22 46  1  0
M  END
