
     RDKit          3D

 54 53  0  0  0  0  0  0  0  0999 V2000
    9.7267    1.5124   -0.3849 O   0  0  0  0  0  0  0  0  0  0  0  0
    8.7729    0.9040    0.3161 C   0  0  0  0  0  0  0  0  0  0  0  0
    8.9301    0.5398    1.4550 O   0  0  0  0  0  0  0  0  0  0  0  0
    7.5106    0.7402   -0.4828 C   0  0  0  0  0  0  0  0  0  0  0  0
    6.3987    0.0137    0.2557 C   0  0  0  0  0  0  0  0  0  0  0  0
    5.1529   -0.1287   -0.6094 C   0  0  0  0  0  0  0  0  0  0  0  0
    4.0077   -0.8369    0.1026 C   0  0  0  0  0  0  0  0  0  0  0  0
    2.7715   -0.9778   -0.7755 C   0  0  0  0  0  0  0  0  0  0  0  0
    1.5962   -1.6316   -0.0613 C   0  0  0  0  0  0  0  0  0  0  0  0
    0.3748   -1.7562   -0.9789 C   0  0  0  0  0  0  0  0  0  0  0  0
   -0.7753   -2.3880   -0.2783 C   0  0  0  0  0  0  0  0  0  0  0  0
   -1.8933   -1.7631    0.0950 C   0  0  0  0  0  0  0  0  0  0  0  0
   -2.9277   -2.5626    0.7468 N   0  0  0  0  0  0  0  0  0  0  0  0
   -2.7298   -3.7381    0.9621 O   0  0  0  0  0  0  0  0  0  0  0  0
   -3.9573   -1.9996    1.0420 O   0  0  0  0  0  0  0  0  0  0  0  0
   -2.2351   -0.3212   -0.1334 C   0  0  0  0  0  0  0  0  0  0  0  0
   -3.0809   -0.1430   -1.3627 C   0  0  0  0  0  0  0  0  0  0  0  0
   -4.3104    0.3601   -1.4355 C   0  0  0  0  0  0  0  0  0  0  0  0
   -5.1674    0.8829   -0.3281 C   0  0  0  0  0  0  0  0  0  0  0  0
   -5.6509    2.3078   -0.6010 C   0  0  0  0  0  0  0  0  0  0  0  0
   -6.6247    2.8149    0.4549 C   0  0  0  0  0  0  0  0  0  0  0  0
   -7.1486    4.2158    0.1637 C   0  0  0  0  0  0  0  0  0  0  0  0
   -8.1266    4.7128    1.2194 C   0  0  0  0  0  0  0  0  0  0  0  0
    7.1755    1.7351   -0.7943 H   0  0  0  0  0  0  0  0  0  0  0  0
    7.7607    0.2166   -1.4112 H   0  0  0  0  0  0  0  0  0  0  0  0
    6.7427   -0.9769    0.5647 H   0  0  0  0  0  0  0  0  0  0  0  0
    6.1445    0.5537    1.1717 H   0  0  0  0  0  0  0  0  0  0  0  0
    4.8177    0.8629   -0.9322 H   0  0  0  0  0  0  0  0  0  0  0  0
    5.4063   -0.6750   -1.5247 H   0  0  0  0  0  0  0  0  0  0  0  0
    4.3385   -1.8277    0.4318 H   0  0  0  0  0  0  0  0  0  0  0  0
    3.7477   -0.2845    1.0120 H   0  0  0  0  0  0  0  0  0  0  0  0
    2.4661    0.0117   -1.1323 H   0  0  0  0  0  0  0  0  0  0  0  0
    3.0255   -1.5580   -1.6690 H   0  0  0  0  0  0  0  0  0  0  0  0
    1.8839   -2.6215    0.3050 H   0  0  0  0  0  0  0  0  0  0  0  0
    1.3254   -1.0408    0.8190 H   0  0  0  0  0  0  0  0  0  0  0  0
    0.1176   -0.7763   -1.3822 H   0  0  0  0  0  0  0  0  0  0  0  0
    0.6386   -2.3866   -1.8332 H   0  0  0  0  0  0  0  0  0  0  0  0
   -0.6638   -3.4417   -0.0521 H   0  0  0  0  0  0  0  0  0  0  0  0
   -2.7051    0.1055    0.7511 H   0  0  0  0  0  0  0  0  0  0  0  0
   -1.2978    0.2227   -0.2643 H   0  0  0  0  0  0  0  0  0  0  0  0
   -2.6106   -0.4743   -2.2841 H   0  0  0  0  0  0  0  0  0  0  0  0
   -4.7614    0.4113   -2.4237 H   0  0  0  0  0  0  0  0  0  0  0  0
   -6.0421    0.2303   -0.2294 H   0  0  0  0  0  0  0  0  0  0  0  0
   -4.6492    0.8457    0.6318 H   0  0  0  0  0  0  0  0  0  0  0  0
   -4.7888    2.9798   -0.6592 H   0  0  0  0  0  0  0  0  0  0  0  0
   -6.1329    2.3428   -1.5841 H   0  0  0  0  0  0  0  0  0  0  0  0
   -7.4692    2.1208    0.5277 H   0  0  0  0  0  0  0  0  0  0  0  0
   -6.1387    2.8057    1.4369 H   0  0  0  0  0  0  0  0  0  0  0  0
   -6.3065    4.9107    0.0909 H   0  0  0  0  0  0  0  0  0  0  0  0
   -7.6328    4.2220   -0.8178 H   0  0  0  0  0  0  0  0  0  0  0  0
   -8.9893    4.0491    1.3023 H   0  0  0  0  0  0  0  0  0  0  0  0
   -7.6539    4.7608    2.2023 H   0  0  0  0  0  0  0  0  0  0  0  0
   -8.4990    5.7104    0.9835 H   0  0  0  0  0  0  0  0  0  0  0  0
   10.5249    1.6050    0.1559 H   0  0  0  0  0  0  0  0  0  0  0  0
  1  2  1  0
  2  3  2  0
  2  4  1  0
  4  5  1  0
  5  6  1  0
  6  7  1  0
  7  8  1  0
  8  9  1  0
  9 10  1  0
 10 11  1  0
 11 12  2  0
 12 13  1  0
 12 16  1  0
 13 14  2  0
 13 15  1  0
 16 17  1  0
 17 18  2  0
 18 19  1  0
 19 20  1  0
 20 21  1  0
 21 22  1  0
 22 23  1  0
  4 24  1  0
  4 25  1  0
  5 26  1  0
  5 27  1  0
  6 28  1  0
  6 29  1  0
  7 30  1  0
  7 31  1  0
  8 32  1  0
  8 33  1  0
  9 34  1  0
  9 35  1  0
 10 36  1  0
 10 37  1  0
 11 38  1  0
 16 39  1  0
 16 40  1  0
 17 41  1  0
 18 42  1  0
 19 43  1  0
 19 44  1  0
 20 45  1  0
 20 46  1  0
 21 47  1  0
 21 48  1  0
 22 49  1  0
 22 50  1  0
 23 51  1  0
 23 52  1  0
 23 53  1  0
  1 54  1  0
M  CHG  2  13   1  15  -1
M  END
