
     RDKit          3D

 38 40  0  0  0  0  0  0  0  0999 V2000
    8.7734   -2.3197    0.3006 C   0  0  0  0  0  0  0  0  0  0  0  0
    7.4165   -1.6681    0.5203 C   0  0  0  0  0  0  0  0  0  0  0  0
    7.0417   -0.7468   -0.6457 C   0  0  0  0  0  0  0  0  0  0  0  0
    5.7256   -0.0713   -0.4448 C   0  0  0  0  0  0  0  0  0  0  0  0
    5.5940    1.2576   -0.2011 C   0  0  0  0  0  0  0  0  0  0  0  0
    4.3176    1.8892    0.0206 C   0  0  0  0  0  0  0  0  0  0  0  0
    4.1113    3.0667    0.2375 O   0  0  0  0  0  0  0  0  0  0  0  0
    3.2692    0.9723   -0.0350 N   0  0  0  0  0  0  0  0  0  0  0  0
    1.9569    1.2647    0.1564 N   0  0  0  0  0  0  0  0  0  0  0  0
    1.3890    0.0881    0.0011 C   0  0  0  0  0  0  0  0  0  0  0  0
    0.0503   -0.1062    0.0606 N   0  0  0  0  0  0  0  0  0  0  0  0
   -0.8118    0.9396    0.5680 C   0  0  0  0  0  0  0  0  0  0  0  0
   -2.2541    0.6016    0.3110 C   0  0  0  0  0  0  0  0  0  0  0  0
   -3.1629    0.5254    1.3584 C   0  0  0  0  0  0  0  0  0  0  0  0
   -4.4997    0.2231    1.1301 C   0  0  0  0  0  0  0  0  0  0  0  0
   -4.9223   -0.0093   -0.1682 C   0  0  0  0  0  0  0  0  0  0  0  0
   -6.7355   -0.4263   -0.4966 Br  0  0  0  0  0  0  0  0  0  0  0  0
   -4.0341    0.0572   -1.2340 C   0  0  0  0  0  0  0  0  0  0  0  0
   -2.7057    0.3618   -0.9849 C   0  0  0  0  0  0  0  0  0  0  0  0
    2.2356   -0.9482   -0.2616 N   0  0  0  0  0  0  0  0  0  0  0  0
    3.3963   -0.3527   -0.2735 C   0  0  0  0  0  0  0  0  0  0  0  0
    4.6217   -0.8711   -0.4829 N   0  0  0  0  0  0  0  0  0  0  0  0
    8.7794   -2.9207   -0.6101 H   0  0  0  0  0  0  0  0  0  0  0  0
    9.5621   -1.5715    0.2103 H   0  0  0  0  0  0  0  0  0  0  0  0
    9.0302   -2.9753    1.1326 H   0  0  0  0  0  0  0  0  0  0  0  0
    6.6571   -2.4442    0.6456 H   0  0  0  0  0  0  0  0  0  0  0  0
    7.4249   -1.0885    1.4462 H   0  0  0  0  0  0  0  0  0  0  0  0
    7.8076    0.0195   -0.7698 H   0  0  0  0  0  0  0  0  0  0  0  0
    7.0126   -1.3234   -1.5755 H   0  0  0  0  0  0  0  0  0  0  0  0
    6.4746    1.8819   -0.1698 H   0  0  0  0  0  0  0  0  0  0  0  0
   -0.2258   -1.0522    0.2751 H   0  0  0  0  0  0  0  0  0  0  0  0
   -0.6567    1.1177    1.6380 H   0  0  0  0  0  0  0  0  0  0  0  0
   -0.5553    1.8702    0.0572 H   0  0  0  0  0  0  0  0  0  0  0  0
   -2.8311    0.7011    2.3742 H   0  0  0  0  0  0  0  0  0  0  0  0
   -5.1889    0.1679    1.9619 H   0  0  0  0  0  0  0  0  0  0  0  0
   -4.3647   -0.1231   -2.2480 H   0  0  0  0  0  0  0  0  0  0  0  0
   -2.0134    0.4129   -1.8161 H   0  0  0  0  0  0  0  0  0  0  0  0
    4.7014   -1.8581   -0.6825 H   0  0  0  0  0  0  0  0  0  0  0  0
 17 16  1  0
 16 15  1  0
 16 18  2  0
 15 14  2  0
 18 19  1  0
 14 13  1  0
 20 21  2  0
 20 10  1  0
  2  1  1  0
  2  3  1  0
 19 13  2  0
 13 12  1  0
 11 10  1  0
 11 12  1  0
 22 21  1  0
 22  4  1  0
 21  8  1  0
 10  9  2  0
  3  4  1  0
  4  5  2  0
  8  9  1  0
  8  6  1  0
  5  6  1  0
  6  7  2  0
  1 23  1  0
  1 24  1  0
  1 25  1  0
  2 26  1  0
  2 27  1  0
  3 28  1  0
  3 29  1  0
  5 30  1  0
 11 31  1  0
 12 32  1  0
 12 33  1  0
 14 34  1  0
 15 35  1  0
 18 36  1  0
 19 37  1  0
 22 38  1  0
M  END
