
     RDKit          3D

 46 49  0  0  0  0  0  0  0  0999 V2000
   -5.0495    0.4303    0.1796 C   0  0  0  0  0  0  0  0  0  0  0  0
   -4.4567    1.7032    0.0538 C   0  0  0  0  0  0  0  0  0  0  0  0
   -3.0919    1.8364   -0.0924 C   0  0  0  0  0  0  0  0  0  0  0  0
   -2.3224    0.6767   -0.1209 C   0  0  0  0  0  0  0  0  0  0  0  0
   -2.8982   -0.6187   -0.0032 C   0  0  0  0  0  0  0  0  0  0  0  0
   -4.2774   -0.7286    0.1537 C   0  0  0  0  0  0  0  0  0  0  0  0
   -6.5000    0.3277    0.3407 C   0  0  0  0  0  0  0  0  0  0  0  0
   -7.0084   -0.6346    1.0779 N   0  0  0  0  0  0  0  0  0  0  0  0
   -7.2857    1.1988   -0.2523 N   0  0  0  0  0  0  0  0  0  0  0  0
   -0.9886    0.5101   -0.2542 N   0  0  0  0  0  0  0  0  0  0  0  0
   -1.8305   -1.5536   -0.0812 C   0  0  0  0  0  0  0  0  0  0  0  0
   -0.6659   -0.8240   -0.2311 C   0  0  0  0  0  0  0  0  0  0  0  0
    0.7192   -1.2416   -0.3488 C   0  0  0  0  0  0  0  0  0  0  0  0
    1.0245   -2.6151   -0.3412 C   0  0  0  0  0  0  0  0  0  0  0  0
    2.3190   -3.0576   -0.4386 C   0  0  0  0  0  0  0  0  0  0  0  0
    3.3639   -2.1210   -0.5426 C   0  0  0  0  0  0  0  0  0  0  0  0
    3.0976   -0.7711   -0.5530 C   0  0  0  0  0  0  0  0  0  0  0  0
    4.0319    0.2036   -0.6659 O   0  0  0  0  0  0  0  0  0  0  0  0
    1.7497   -0.2569   -0.4631 C   0  0  0  0  0  0  0  0  0  0  0  0
    1.5434    0.9982   -0.4874 O   0  0  0  0  0  0  0  0  0  0  0  0
    6.1757    1.1448   -0.9370 C   0  0  0  0  0  0  0  0  0  0  0  0
    5.4091   -0.1333   -0.6332 C   0  0  1  0  0  0  0  0  0  0  0  0
    5.8755   -0.4697    0.7822 C   0  0  0  0  0  0  0  0  0  0  0  0
    6.0170    0.8920    1.4883 C   0  0  0  0  0  0  0  0  0  0  0  0
    6.0896    1.9502    0.3640 C   0  0  0  0  0  0  0  0  0  0  0  0
   -5.0666    2.5951    0.1110 H   0  0  0  0  0  0  0  0  0  0  0  0
   -2.6390    2.8158   -0.1730 H   0  0  0  0  0  0  0  0  0  0  0  0
   -4.7366   -1.7076    0.2212 H   0  0  0  0  0  0  0  0  0  0  0  0
   -8.0030   -0.7827    1.1555 H   0  0  0  0  0  0  0  0  0  0  0  0
   -6.4144   -1.2092    1.6522 H   0  0  0  0  0  0  0  0  0  0  0  0
   -6.9170    1.8502   -0.9252 H   0  0  0  0  0  0  0  0  0  0  0  0
   -8.2836    1.2058   -0.1085 H   0  0  0  0  0  0  0  0  0  0  0  0
   -0.2257    1.1854   -0.3532 H   0  0  0  0  0  0  0  0  0  0  0  0
   -1.9153   -2.6271   -0.0254 H   0  0  0  0  0  0  0  0  0  0  0  0
    0.2198   -3.3364   -0.2580 H   0  0  0  0  0  0  0  0  0  0  0  0
    2.5450   -4.1157   -0.4323 H   0  0  0  0  0  0  0  0  0  0  0  0
    4.3809   -2.4866   -0.6120 H   0  0  0  0  0  0  0  0  0  0  0  0
    7.2126    0.8759   -1.1524 H   0  0  0  0  0  0  0  0  0  0  0  0
    5.7897    1.6737   -1.8102 H   0  0  0  0  0  0  0  0  0  0  0  0
    5.6277   -0.9278   -1.3562 H   0  0  0  0  0  0  0  0  0  0  0  0
    5.2053   -1.1537    1.3041 H   0  0  0  0  0  0  0  0  0  0  0  0
    6.8449   -0.9691    0.7119 H   0  0  0  0  0  0  0  0  0  0  0  0
    6.9063    0.9106    2.1188 H   0  0  0  0  0  0  0  0  0  0  0  0
    5.1673    1.0806    2.1455 H   0  0  0  0  0  0  0  0  0  0  0  0
    6.9384    2.6245    0.4806 H   0  0  0  0  0  0  0  0  0  0  0  0
    5.1917    2.5690    0.3638 H   0  0  0  0  0  0  0  0  0  0  0  0
  1  2  2  0
  1  6  1  0
  1  7  1  0
  2  3  1  0
  2 26  1  0
  3  4  2  0
  3 27  1  0
  4  5  1  0
  4 10  1  0
  5  6  2  0
  5 11  1  0
  6 28  1  0
  7  8  1  0
  7  9  2  0
  8 29  1  0
  8 30  1  0
  9 31  1  0
  9 32  1  0
 10 12  1  0
 10 33  1  0
 11 12  2  0
 11 34  1  0
 12 13  1  0
 13 14  2  0
 13 19  1  0
 14 15  1  0
 14 35  1  0
 15 16  2  0
 15 36  1  0
 16 17  1  0
 16 37  1  0
 17 18  1  0
 17 19  2  0
 18 22  1  0
 19 20  1  0
 21 22  1  0
 21 25  1  0
 21 38  1  0
 21 39  1  0
 22 23  1  0
 22 40  1  6
 23 24  1  0
 23 41  1  0
 23 42  1  0
 24 25  1  0
 24 43  1  0
 24 44  1  0
 25 45  1  0
 25 46  1  0
M  CHG  2   9   1  20  -1
M  END
