
     RDKit          3D

 63 68  0  0  0  0  0  0  0  0999 V2000
    3.1127    0.4638    0.3483 C   0  0  0  0  0  0  0  0  0  0  0  0
    1.5382   -0.4582   -0.8776 C   0  0  0  0  0  0  0  0  0  0  0  0
    1.1679    3.2103    2.1187 C   0  0  0  0  0  0  0  0  0  0  0  0
    3.9098    1.4343    1.1456 C   0  0  0  0  0  0  0  0  0  0  0  0
    1.9656    3.8607    3.2249 C   0  0  0  0  0  0  0  0  0  0  0  0
    4.6477   -1.5154    0.3255 C   0  0  1  0  0  0  0  0  0  0  0  0
    4.3792   -2.6933    1.2634 C   0  0  0  0  0  0  0  0  0  0  0  0
    4.0866   -3.8333    0.2988 C   0  0  0  0  0  0  0  0  0  0  0  0
    5.2909   -2.2146   -0.8720 C   0  0  0  0  0  0  0  0  0  0  0  0
    0.6110   -1.2527   -2.9985 C   0  0  0  0  0  0  0  0  0  0  0  0
   -0.3510   -0.5872   -3.9660 C   0  0  0  0  0  0  0  0  0  0  0  0
   -1.7816   -0.8474   -3.5246 C   0  0  0  0  0  0  0  0  0  0  0  0
   -1.9684   -0.6042   -2.0488 C   0  0  0  0  0  0  0  0  0  0  0  0
   -0.8680   -0.5609   -1.1735 C   0  0  0  0  0  0  0  0  0  0  0  0
   -1.1173   -0.3807    0.1934 C   0  0  0  0  0  0  0  0  0  0  0  0
   -2.4017   -0.2122    0.6730 C   0  0  0  0  0  0  0  0  0  0  0  0
   -3.5032   -0.2265   -0.1828 C   0  0  0  0  0  0  0  0  0  0  0  0
   -3.2468   -0.4308   -1.5375 C   0  0  0  0  0  0  0  0  0  0  0  0
   -4.8643   -0.0379    0.3127 C   0  0  0  0  0  0  0  0  0  0  0  0
   -6.0836   -0.2984   -0.3462 C   0  0  0  0  0  0  0  0  0  0  0  0
   -5.2673    0.4379    1.5476 C   0  0  0  0  0  0  0  0  0  0  0  0
    1.1811    2.0380   -0.0213 C   0  0  0  0  0  0  0  0  0  0  0  0
    3.3003    2.8185    0.9089 C   0  0  0  0  0  0  0  0  0  0  0  0
    1.8734    0.7243   -0.1875 C   0  0  0  0  0  0  0  0  0  0  0  0
    2.4952   -1.3619   -0.7592 N   0  0  0  0  0  0  0  0  0  0  0  0
    3.4494   -0.7848   -0.0268 N   0  0  0  0  0  0  0  0  0  0  0  0
    0.4198   -0.7123   -1.6627 N   0  0  0  0  0  0  0  0  0  0  0  0
   -7.1228   -0.0097    0.4148 N   0  0  0  0  0  0  0  0  0  0  0  0
   -6.6109    0.4319    1.5572 N   0  0  0  0  0  0  0  0  0  0  0  0
    1.8540    2.7869    1.0297 N   0  0  0  0  0  0  0  0  0  0  0  0
    4.8292   -3.5520   -0.8782 O   0  0  0  0  0  0  0  0  0  0  0  0
   -0.0467    3.0907    2.2077 O   0  0  0  0  0  0  0  0  0  0  0  0
    3.8850    1.1822    2.2101 H   0  0  0  0  0  0  0  0  0  0  0  0
    4.9601    1.4462    0.8459 H   0  0  0  0  0  0  0  0  0  0  0  0
    2.4476    4.7789    2.8861 H   0  0  0  0  0  0  0  0  0  0  0  0
    1.2962    4.1093    4.0443 H   0  0  0  0  0  0  0  0  0  0  0  0
    2.7474    3.2033    3.6072 H   0  0  0  0  0  0  0  0  0  0  0  0
    5.3313   -0.7955    0.7721 H   0  0  0  0  0  0  0  0  0  0  0  0
    5.2837   -2.8940    1.8400 H   0  0  0  0  0  0  0  0  0  0  0  0
    3.5677   -2.5056    1.9655 H   0  0  0  0  0  0  0  0  0  0  0  0
    4.3952   -4.8023    0.6975 H   0  0  0  0  0  0  0  0  0  0  0  0
    3.0191   -3.8868    0.0672 H   0  0  0  0  0  0  0  0  0  0  0  0
    5.0419   -1.7223   -1.8150 H   0  0  0  0  0  0  0  0  0  0  0  0
    6.3801   -2.1932   -0.7587 H   0  0  0  0  0  0  0  0  0  0  0  0
    0.4603   -2.3388   -3.0092 H   0  0  0  0  0  0  0  0  0  0  0  0
    1.6428   -1.0698   -3.2937 H   0  0  0  0  0  0  0  0  0  0  0  0
   -0.1466    0.4861   -3.9952 H   0  0  0  0  0  0  0  0  0  0  0  0
   -0.1859   -0.9751   -4.9722 H   0  0  0  0  0  0  0  0  0  0  0  0
   -2.4785   -0.2267   -4.0917 H   0  0  0  0  0  0  0  0  0  0  0  0
   -2.0467   -1.8848   -3.7528 H   0  0  0  0  0  0  0  0  0  0  0  0
   -0.2964   -0.3802    0.8984 H   0  0  0  0  0  0  0  0  0  0  0  0
   -2.5407   -0.0846    1.7397 H   0  0  0  0  0  0  0  0  0  0  0  0
   -4.0727   -0.4451   -2.2407 H   0  0  0  0  0  0  0  0  0  0  0  0
   -6.2367   -0.6969   -1.3383 H   0  0  0  0  0  0  0  0  0  0  0  0
   -4.7011    0.7825    2.3986 H   0  0  0  0  0  0  0  0  0  0  0  0
   -7.9540    1.8301    2.3484 H   0  0  0  0  0  0  0  0  0  0  0  0
   -8.2493    0.1426    2.8082 H   0  0  0  0  0  0  0  0  0  0  0  0
   -6.8937    1.0296    3.5182 H   0  0  0  0  0  0  0  0  0  0  0  0
    1.2025    2.6156   -0.9524 H   0  0  0  0  0  0  0  0  0  0  0  0
    0.1355    1.9121    0.2515 H   0  0  0  0  0  0  0  0  0  0  0  0
    3.7293    3.5451    1.5922 H   0  0  0  0  0  0  0  0  0  0  0  0
    3.5473    3.1544   -0.1015 H   0  0  0  0  0  0  0  0  0  0  0  0
   -7.4800    0.8866    2.6153 C   0  0  0  0  0  0  0  0  0  0  0  0
  8  7  1  0
  8 31  1  0
  7  6  1  0
 31  9  1  0
  9  6  1  0
  6 26  1  0
  4  1  1  0
  4 23  1  0
 26  1  1  0
 26 25  1  0
  1 24  2  0
 23 30  1  0
 25  2  2  0
 32  3  2  0
 24  2  1  0
 24 22  1  0
 30  3  1  0
 30 22  1  0
  2 27  1  0
  3  5  1  0
 15 16  2  0
 15 14  1  0
 27 14  1  0
 27 10  1  0
 16 17  1  0
 14 13  2  0
 10 11  1  0
 17 19  1  0
 17 18  2  0
 21 19  2  0
 21 29  1  0
 11 12  1  0
 13 18  1  0
 13 12  1  0
 19 20  1  0
 63 29  1  0
 29 28  1  0
 20 28  2  0
  4 33  1  0
  4 34  1  0
  5 35  1  0
  5 36  1  0
  5 37  1  0
  6 38  1  1
  7 39  1  0
  7 40  1  0
  8 41  1  0
  8 42  1  0
  9 43  1  0
  9 44  1  0
 10 45  1  0
 10 46  1  0
 11 47  1  0
 11 48  1  0
 12 49  1  0
 12 50  1  0
 15 51  1  0
 16 52  1  0
 18 53  1  0
 20 54  1  0
 21 55  1  0
 63 56  1  0
 63 57  1  0
 63 58  1  0
 22 59  1  0
 22 60  1  0
 23 61  1  0
 23 62  1  0
M  END
