
     RDKit          3D

 39 40  0  0  0  0  0  0  0  0999 V2000
   -5.2860    1.1379    0.8553 C   0  0  0  0  0  0  0  0  0  0  0  0
   -1.8498    3.0304   -0.0583 O   0  0  0  0  0  0  0  0  0  0  0  0
    2.2695   -1.7636    0.1997 O   0  0  0  0  0  0  0  0  0  0  0  0
   -3.8837    3.0958   -0.9850 O   0  0  0  0  0  0  0  0  0  0  0  0
    6.2714    1.1136    0.9370 C   0  0  0  0  0  0  0  0  0  0  0  0
    6.2668   -0.0509    0.1799 C   0  0  0  0  0  0  0  0  0  0  0  0
    5.1465    1.9279    0.9499 C   0  0  0  0  0  0  0  0  0  0  0  0
    5.1423   -0.4006   -0.5555 C   0  0  0  0  0  0  0  0  0  0  0  0
    4.0247    1.5762    0.2110 C   0  0  0  0  0  0  0  0  0  0  0  0
   -4.4570   -1.0573    0.0787 C   0  0  0  0  0  0  0  0  0  0  0  0
    2.7833    0.0269   -1.3248 C   0  0  0  0  0  0  0  0  0  0  0  0
   -1.9757    0.3939   -0.4250 N   0  0  0  0  0  0  0  0  0  0  0  0
    0.5470   -0.6082   -0.6400 N   0  0  0  0  0  0  0  0  0  0  0  0
   -2.9937   -1.8739    0.7780 S   0  0  0  0  0  0  0  0  0  0  0  0
   -4.3260    0.4195    0.2719 C   0  0  0  0  0  0  0  0  0  0  0  0
   -2.9923    2.4988   -0.4409 C   0  0  0  0  0  0  0  0  0  0  0  0
    1.8602   -0.8555   -0.5088 C   0  0  0  0  0  0  0  0  0  0  0  0
   -0.1617   -2.8407    0.0354 C   0  0  0  0  0  0  0  0  0  0  0  0
   -3.0495    1.0136   -0.1650 C   0  0  0  0  0  0  0  0  0  0  0  0
    4.0110    0.4099   -0.5490 C   0  0  0  0  0  0  0  0  0  0  0  0
   -1.8194   -1.0222   -0.3228 C   0  0  2  0  0  0  0  0  0  0  0  0
   -0.3975   -1.3365    0.1653 C   0  0  2  0  0  0  0  0  0  0  0  0
   -6.1921    0.6590    1.2023 H   0  0  0  0  0  0  0  0  0  0  0  0
   -5.2157    2.2034    1.0188 H   0  0  0  0  0  0  0  0  0  0  0  0
   -1.8245    3.9709   -0.2941 H   0  0  0  0  0  0  0  0  0  0  0  0
    7.1415   -0.6882    0.1597 H   0  0  0  0  0  0  0  0  0  0  0  0
    5.1420    2.8397    1.5333 H   0  0  0  0  0  0  0  0  0  0  0  0
    5.1501   -1.3070   -1.1486 H   0  0  0  0  0  0  0  0  0  0  0  0
    3.1518    2.2184    0.2216 H   0  0  0  0  0  0  0  0  0  0  0  0
   -4.5388   -1.3202   -0.9780 H   0  0  0  0  0  0  0  0  0  0  0  0
   -5.3315   -1.4495    0.5945 H   0  0  0  0  0  0  0  0  0  0  0  0
    3.0605   -0.5447   -2.2152 H   0  0  0  0  0  0  0  0  0  0  0  0
    2.2567    0.9150   -1.6778 H   0  0  0  0  0  0  0  0  0  0  0  0
    0.2232    0.2372   -1.0868 H   0  0  0  0  0  0  0  0  0  0  0  0
   -0.1075   -3.3944    0.9853 H   0  0  0  0  0  0  0  0  0  0  0  0
   -1.9307   -1.4275   -1.3357 H   0  0  0  0  0  0  0  0  0  0  0  0
   -0.3100   -1.0546    1.2208 H   0  0  0  0  0  0  0  0  0  0  0  0
   -0.0991   -3.3917   -1.0312 O   0  0  0  0  0  0  0  0  0  0  0  0
    7.1478    1.3871    1.5105 H   0  0  0  0  0  0  0  0  0  0  0  0
 15  1  2  0
  1 23  1  0
  1 24  1  0
 16  2  1  0
  2 25  1  0
  3 17  2  0
 18 38  2  0
  4 16  2  0
  6  5  2  0
  5  7  1  0
  5 39  1  0
  6  8  1  0
  6 26  1  0
  7  9  2  0
  7 27  1  0
  8 20  2  0
  8 28  1  0
 20  9  1  0
  9 29  1  0
 14 10  1  0
 10 15  1  0
 10 30  1  0
 10 31  1  0
 17 11  1  0
 20 11  1  0
 11 32  1  0
 11 33  1  0
 21 12  1  0
 12 19  2  0
 22 13  1  0
 13 17  1  0
 13 34  1  0
 14 21  1  0
 19 15  1  0
 19 16  1  0
 22 18  1  0
 18 35  1  0
 21 22  1  0
 21 36  1  6
 22 37  1  1
M  END
