
     RDKit          3D

 24 24  0  0  0  0  0  0  0  0999 V2000
   -0.8047   -0.7329   -1.4163 C   0  0  1  0  0  0  0  0  0  0  0  0
   -1.3830   -0.5303   -3.0731 S   0  0  0  0  0  0  0  0  0  0  0  0
    0.7180   -0.7493   -1.4231 C   0  0  2  0  0  0  0  0  0  0  0  0
    1.1673   -1.9272   -2.1209 O   0  0  0  0  0  0  0  0  0  0  0  0
    1.2812   -0.7620   -0.0501 C   0  0  1  0  0  0  0  0  0  0  0  0
    2.7262   -0.6164   -0.1343 O   0  0  0  0  0  0  0  0  0  0  0  0
    0.7324    0.3472    0.7921 C   0  0  1  0  0  0  0  0  0  0  0  0
   -0.7981    0.3640    0.7941 C   0  0  2  0  0  0  0  0  0  0  0  0
   -1.3541    0.3780   -0.5696 O   0  0  0  0  0  0  0  0  0  0  0  0
   -1.2686    1.5844    1.5222 C   0  0  0  0  0  0  0  0  0  0  0  0
   -2.6594    1.6942    1.3990 O   0  0  0  0  0  0  0  0  0  0  0  0
    1.3307    0.1281    2.5342 S   0  0  0  0  0  0  0  0  0  0  0  0
   -1.1626   -1.6785   -1.0272 H   0  0  0  0  0  0  0  0  0  0  0  0
   -2.6230   -0.9943   -3.1688 H   0  0  0  0  0  0  0  0  0  0  0  0
    1.0762    0.1320   -1.9413 H   0  0  0  0  0  0  0  0  0  0  0  0
    1.4670   -1.6869   -2.9835 H   0  0  0  0  0  0  0  0  0  0  0  0
    1.0435   -1.7094    0.4183 H   0  0  0  0  0  0  0  0  0  0  0  0
    3.1414   -1.3851    0.2240 H   0  0  0  0  0  0  0  0  0  0  0  0
    1.0933    1.2929    0.4061 H   0  0  0  0  0  0  0  0  0  0  0  0
   -1.1569   -0.5190    1.3091 H   0  0  0  0  0  0  0  0  0  0  0  0
   -1.0037    1.5043    2.5711 H   0  0  0  0  0  0  0  0  0  0  0  0
   -0.7973    2.4637    1.0963 H   0  0  0  0  0  0  0  0  0  0  0  0
   -2.9815    2.3275    2.0211 H   0  0  0  0  0  0  0  0  0  0  0  0
    2.2157    1.0751    2.8205 H   0  0  0  0  0  0  0  0  0  0  0  0
  1  2  1  0
  1  3  1  0
  1  9  1  0
  1 13  1  1
  2 14  1  0
  3  4  1  0
  3  5  1  0
  3 15  1  6
  4 16  1  0
  5  6  1  0
  5  7  1  0
  5 17  1  1
  6 18  1  0
  7  8  1  0
  7 12  1  0
  7 19  1  6
  8  9  1  0
  8 10  1  0
  8 20  1  1
 10 11  1  0
 10 21  1  0
 10 22  1  0
 11 23  1  0
 12 24  1  0
M  END
