
     RDKit          3D

 92 97  0  0  0  0  0  0  0  0999 V2000
   -3.5024    2.1987   -0.0582 C   0  0  0  0  0  0  0  0  0  0  0  0
   -7.6795    1.1968   -0.1887 C   0  0  1  0  0  0  0  0  0  0  0  0
   -3.9075    0.8770   -0.2527 C   0  0  0  0  0  0  0  0  0  0  0  0
   -4.2414   -2.1057   -0.2825 C   0  0  0  0  0  0  0  0  0  0  0  0
   -4.6289   -3.5814   -0.2979 C   0  0  0  0  0  0  0  0  0  0  0  0
   -3.8675   -5.7491    0.3828 C   0  0  0  0  0  0  0  0  0  0  0  0
   -5.2474    0.5218   -0.3088 C   0  0  0  0  0  0  0  0  0  0  0  0
   -2.6540   -6.6059    0.7084 C   0  0  0  0  0  0  0  0  0  0  0  0
   -1.7377   -6.7299   -0.5013 C   0  0  0  0  0  0  0  0  0  0  0  0
   -1.3875   -5.3445   -1.0261 C   0  0  0  0  0  0  0  0  0  0  0  0
   -2.6479   -4.5340   -1.2874 C   0  0  0  0  0  0  0  0  0  0  0  0
   -6.2198    1.5283   -0.1647 C   0  0  0  0  0  0  0  0  0  0  0  0
   -2.0751    2.5155   -0.0172 C   0  0  0  0  0  0  0  0  0  0  0  0
   -1.4130    3.6520    0.4957 C   0  0  0  0  0  0  0  0  0  0  0  0
   -0.0800    3.4040    0.2704 C   0  0  0  0  0  0  0  0  0  0  0  0
   -5.8174    2.8429    0.0196 C   0  0  0  0  0  0  0  0  0  0  0  0
    1.0342    4.3200    0.6284 C   0  0  0  0  0  0  0  0  0  0  0  0
    0.4153    5.6842    0.9321 C   0  0  0  0  0  0  0  0  0  0  0  0
   -1.8677    4.9041    1.1719 C   0  0  0  0  0  0  0  0  0  0  0  0
   -4.4763    3.1834    0.0723 C   0  0  0  0  0  0  0  0  0  0  0  0
    1.8357    0.7490    0.4647 C   0  0  2  0  0  0  0  0  0  0  0  0
    2.9779   -0.1103   -0.0729 C   0  0  0  0  0  0  0  0  0  0  0  0
    4.3449   -2.0217    0.5455 C   0  0  0  0  0  0  0  0  0  0  0  0
    5.5737   -1.8200   -0.3408 C   0  0  0  0  0  0  0  0  0  0  0  0
    6.6037   -0.9399    0.3773 C   0  0  2  0  0  0  0  0  0  0  0  0
    5.9355    0.3604    0.8368 C   0  0  0  0  0  0  0  0  0  0  0  0
    4.6792    0.0653    1.6578 C   0  0  0  0  0  0  0  0  0  0  0  0
    7.8232   -0.6765   -0.4735 C   0  0  0  0  0  0  0  0  0  0  0  0
    9.1061   -1.1041   -0.0930 C   0  0  0  0  0  0  0  0  0  0  0  0
   10.2075   -0.8370   -0.9051 C   0  0  0  0  0  0  0  0  0  0  0  0
   10.0449   -0.1452   -2.0986 C   0  0  0  0  0  0  0  0  0  0  0  0
    8.7884    0.2845   -2.4904 C   0  0  0  0  0  0  0  0  0  0  0  0
    7.6979    0.0131   -1.6737 C   0  0  0  0  0  0  0  0  0  0  0  0
   10.4684   -2.2105    1.5153 C   0  0  0  0  0  0  0  0  0  0  0  0
   -8.0367    0.4194    0.8444 F   0  0  0  0  0  0  0  0  0  0  0  0
   -8.4519    2.2847   -0.1345 F   0  0  0  0  0  0  0  0  0  0  0  0
   -8.0260    0.5334   -1.3033 F   0  0  0  0  0  0  0  0  0  0  0  0
   -3.4730   -4.4310   -0.0925 N   0  0  0  0  0  0  0  0  0  0  0  0
   -0.0034    2.2012   -0.3344 N   0  0  0  0  0  0  0  0  0  0  0  0
   -1.1953    1.6505   -0.5056 N   0  0  0  0  0  0  0  0  0  0  0  0
   -0.7213    5.5186    1.8242 N   0  0  0  0  0  0  0  0  0  0  0  0
    3.7145   -0.7846    0.9758 N   0  0  0  0  0  0  0  0  0  0  0  0
    0.9002    0.0162    1.2094 O   0  0  0  0  0  0  0  0  0  0  0  0
    9.2006   -1.7703    1.0776 O   0  0  0  0  0  0  0  0  0  0  0  0
   -5.7518   -1.1464   -0.5752 S   0  0  0  0  0  0  0  0  0  0  0  0
   -3.1398    0.1258   -0.3596 H   0  0  0  0  0  0  0  0  0  0  0  0
   -3.8194   -1.8426    0.6879 H   0  0  0  0  0  0  0  0  0  0  0  0
   -3.5097   -1.8822   -1.0585 H   0  0  0  0  0  0  0  0  0  0  0  0
   -5.3357   -3.7586    0.5154 H   0  0  0  0  0  0  0  0  0  0  0  0
   -5.1565   -3.8254   -1.2349 H   0  0  0  0  0  0  0  0  0  0  0  0
   -4.4910   -6.2753   -0.3628 H   0  0  0  0  0  0  0  0  0  0  0  0
   -4.4835   -5.6261    1.2769 H   0  0  0  0  0  0  0  0  0  0  0  0
   -2.1084   -6.1512    1.5406 H   0  0  0  0  0  0  0  0  0  0  0  0
   -2.9897   -7.5891    1.0454 H   0  0  0  0  0  0  0  0  0  0  0  0
   -0.8349   -7.2897   -0.2474 H   0  0  0  0  0  0  0  0  0  0  0  0
   -2.2503   -7.2952   -1.2873 H   0  0  0  0  0  0  0  0  0  0  0  0
   -0.7645   -4.8167   -0.2976 H   0  0  0  0  0  0  0  0  0  0  0  0
   -0.8093   -5.4114   -1.9503 H   0  0  0  0  0  0  0  0  0  0  0  0
   -2.3680   -3.5335   -1.6218 H   0  0  0  0  0  0  0  0  0  0  0  0
   -3.2135   -4.9979   -2.1158 H   0  0  0  0  0  0  0  0  0  0  0  0
   -6.5518    3.6289    0.1223 H   0  0  0  0  0  0  0  0  0  0  0  0
    1.5715    3.9501    1.5062 H   0  0  0  0  0  0  0  0  0  0  0  0
    1.7643    4.4082   -0.1803 H   0  0  0  0  0  0  0  0  0  0  0  0
    1.1531    6.3195    1.4218 H   0  0  0  0  0  0  0  0  0  0  0  0
    0.1445    6.1734   -0.0159 H   0  0  0  0  0  0  0  0  0  0  0  0
   -2.3452    5.5735    0.4380 H   0  0  0  0  0  0  0  0  0  0  0  0
   -2.6262    4.6865    1.9291 H   0  0  0  0  0  0  0  0  0  0  0  0
   -4.2076    4.2234    0.1919 H   0  0  0  0  0  0  0  0  0  0  0  0
    1.8957    2.1683   -1.1685 H   0  0  0  0  0  0  0  0  0  0  0  0
    0.8886    0.7665   -1.4874 H   0  0  0  0  0  0  0  0  0  0  0  0
    2.2373    1.4978    1.1554 H   0  0  0  0  0  0  0  0  0  0  0  0
    2.5419   -0.8697   -0.7314 H   0  0  0  0  0  0  0  0  0  0  0  0
    3.6114    0.5164   -0.7190 H   0  0  0  0  0  0  0  0  0  0  0  0
    3.6030   -2.6383    0.0329 H   0  0  0  0  0  0  0  0  0  0  0  0
    4.6457   -2.5765    1.4418 H   0  0  0  0  0  0  0  0  0  0  0  0
    6.0142   -2.7903   -0.5854 H   0  0  0  0  0  0  0  0  0  0  0  0
    5.2810   -1.3631   -1.2918 H   0  0  0  0  0  0  0  0  0  0  0  0
    6.9085   -1.4795    1.2782 H   0  0  0  0  0  0  0  0  0  0  0  0
    6.6328    0.9497    1.4381 H   0  0  0  0  0  0  0  0  0  0  0  0
    5.6789    0.9775   -0.0302 H   0  0  0  0  0  0  0  0  0  0  0  0
    4.9702   -0.4329    2.5889 H   0  0  0  0  0  0  0  0  0  0  0  0
    4.1980    1.0008    1.9512 H   0  0  0  0  0  0  0  0  0  0  0  0
   11.2000   -1.1594   -0.6211 H   0  0  0  0  0  0  0  0  0  0  0  0
   10.9115    0.0538   -2.7160 H   0  0  0  0  0  0  0  0  0  0  0  0
    8.6534    0.8256   -3.4176 H   0  0  0  0  0  0  0  0  0  0  0  0
    6.7150    0.3510   -1.9815 H   0  0  0  0  0  0  0  0  0  0  0  0
   10.3081   -2.7158    2.4647 H   0  0  0  0  0  0  0  0  0  0  0  0
   10.9231   -2.9169    0.8157 H   0  0  0  0  0  0  0  0  0  0  0  0
   11.1603   -1.3790    1.6747 H   0  0  0  0  0  0  0  0  0  0  0  0
   -0.9950    6.4191    2.1928 H   0  0  0  0  0  0  0  0  0  0  0  0
    0.5347   -0.6800    0.6525 H   0  0  0  0  0  0  0  0  0  0  0  0
    1.1837    1.4777   -0.7140 C   0  0  0  0  0  0  0  0  0  0  0  0
  8  9  1  0
  8  6  1  0
  9 10  1  0
  6 38  1  0
 10 11  1  0
 11 38  1  0
 38  5  1  0
  5  4  1  0
  4 45  1  0
 45  7  1  0
  2 37  1  6
 35  2  1  0
  2 12  1  0
  2 36  1  0
  7 12  1  0
  7  3  2  0
 34 44  1  0
 12 16  2  0
  3  1  1  0
 44 29  1  0
 30 29  2  0
 30 31  1  0
 16 20  1  0
 29 28  1  0
 19 41  1  0
 19 14  1  0
  1 20  2  0
  1 13  1  0
 31 32  2  0
 41 18  1  0
 26 27  1  0
 26 25  1  0
 14 13  1  0
 14 15  2  0
 27 42  1  0
 13 40  2  0
 28 25  1  0
 28 33  2  0
 32 33  1  0
 25 24  1  0
 18 17  1  0
 15 17  1  0
 15 39  1  0
 40 39  1  0
 43 21  1  0
 42 23  1  0
 42 22  1  0
 24 23  1  0
 39 92  1  0
 22 21  1  0
 21 92  1  0
  3 46  1  0
  4 47  1  0
  4 48  1  0
  5 49  1  0
  5 50  1  0
  6 51  1  0
  6 52  1  0
  8 53  1  0
  8 54  1  0
  9 55  1  0
  9 56  1  0
 10 57  1  0
 10 58  1  0
 11 59  1  0
 11 60  1  0
 16 61  1  0
 17 62  1  0
 17 63  1  0
 18 64  1  0
 18 65  1  0
 19 66  1  0
 19 67  1  0
 20 68  1  0
 92 69  1  0
 92 70  1  0
 21 71  1  1
 22 72  1  0
 22 73  1  0
 23 74  1  0
 23 75  1  0
 24 76  1  0
 24 77  1  0
 25 78  1  1
 26 79  1  0
 26 80  1  0
 27 81  1  0
 27 82  1  0
 30 83  1  0
 31 84  1  0
 32 85  1  0
 33 86  1  0
 34 87  1  0
 34 88  1  0
 34 89  1  0
 41 90  1  0
 43 91  1  0
M  END
