
     RDKit          3D

104105  0  0  0  0  0  0  0  0999 V2000
    5.6868    3.3196   -0.7074 C   0  0  0  0  0  0  0  0  0  0  0  0
    4.6212    2.3468   -0.2268 C   0  0  0  0  0  0  0  0  0  0  0  0
   -4.0430    1.3011   -0.2770 O   0  0  0  0  0  0  0  0  0  0  0  0
    9.0481    8.2707    1.5775 C   0  0  0  0  0  0  0  0  0  0  0  0
    8.5840    7.3224    0.4805 C   0  0  0  0  0  0  0  0  0  0  0  0
    7.5880    6.2822    0.9783 C   0  0  0  0  0  0  0  0  0  0  0  0
    7.1306    5.3177   -0.1085 C   0  0  0  0  0  0  0  0  0  0  0  0
    6.1054    4.3019    0.3790 C   0  0  0  0  0  0  0  0  0  0  0  0
    4.2152    1.3337   -1.2766 C   0  0  0  0  0  0  0  0  0  0  0  0
    4.2851    1.5666   -2.4764 O   0  0  0  0  0  0  0  0  0  0  0  0
    3.2750   -0.9252   -1.5883 C   0  0  1  0  0  0  0  0  0  0  0  0
    4.3940   -1.9436   -1.7689 C   0  0  0  0  0  0  0  0  0  0  0  0
    4.7135   -2.4732   -0.4993 O   0  0  0  0  0  0  0  0  0  0  0  0
    5.9525   -3.0928   -0.4081 C   0  0  1  0  0  0  0  0  0  0  0  0
    7.0164   -2.1904   -0.5379 O   0  0  0  0  0  0  0  0  0  0  0  0
    7.0574   -1.1780    0.4551 C   0  0  2  0  0  0  0  0  0  0  0  0
    8.1979   -0.2420    0.1187 C   0  0  0  0  0  0  0  0  0  0  0  0
    7.9074    0.3916   -1.1049 O   0  0  0  0  0  0  0  0  0  0  0  0
    7.1802   -1.7759    1.8504 C   0  0  2  0  0  0  0  0  0  0  0  0
    8.4391   -2.3911    1.9779 O   0  0  0  0  0  0  0  0  0  0  0  0
    6.0417   -2.7719    2.0685 C   0  0  2  0  0  0  0  0  0  0  0  0
    6.2335   -3.3703    3.3286 O   0  0  0  0  0  0  0  0  0  0  0  0
    6.0326   -3.8019    0.9465 C   0  0  1  0  0  0  0  0  0  0  0  0
    4.9507   -4.6739    1.1629 O   0  0  0  0  0  0  0  0  0  0  0  0
    1.9877   -1.5406   -1.0033 C   0  0  2  0  0  0  0  0  0  0  0  0
    1.6278   -2.6673   -1.7684 O   0  0  0  0  0  0  0  0  0  0  0  0
    0.8330   -0.5191   -0.8899 C   0  0  2  0  0  0  0  0  0  0  0  0
    1.0841    0.4103    0.1447 O   0  0  0  0  0  0  0  0  0  0  0  0
   -0.5272   -1.1892   -0.7031 C   0  0  0  0  0  0  0  0  0  0  0  0
   -1.6699   -0.1823   -0.6308 C   0  0  0  0  0  0  0  0  0  0  0  0
   -3.0131   -0.8731   -0.4606 C   0  0  0  0  0  0  0  0  0  0  0  0
   -4.1829    0.0875   -0.3598 C   0  0  0  0  0  0  0  0  0  0  0  0
   -5.3928   -0.4934   -0.3534 N   0  0  0  0  0  0  0  0  0  0  0  0
   -6.6272    0.2502   -0.2081 C   0  0  0  0  0  0  0  0  0  0  0  0
   -7.8215   -0.6898   -0.1812 C   0  0  0  0  0  0  0  0  0  0  0  0
   -9.1363    0.0622   -0.0215 C   0  0  0  0  0  0  0  0  0  0  0  0
  -10.3439   -0.8658    0.0098 C   0  0  0  0  0  0  0  0  0  0  0  0
  -11.6621   -0.1225    0.1804 C   0  0  0  0  0  0  0  0  0  0  0  0
  -12.8660   -1.0657    0.2175 C   0  0  0  0  0  0  0  0  0  0  0  0
  -14.1638   -0.3290    0.3938 C   0  0  0  0  0  0  0  0  0  0  0  0
  -14.8803    0.1269   -0.7110 C   0  0  0  0  0  0  0  0  0  0  0  0
  -16.0601    0.8421   -0.5532 C   0  0  0  0  0  0  0  0  0  0  0  0
  -16.5440    1.1160    0.7196 C   0  0  0  0  0  0  0  0  0  0  0  0
  -15.8391    0.6683    1.8294 C   0  0  0  0  0  0  0  0  0  0  0  0
  -14.6598   -0.0465    1.6651 C   0  0  0  0  0  0  0  0  0  0  0  0
    3.7491    0.1751   -0.7825 N   0  0  0  0  0  0  0  0  0  0  0  0
    6.5612    2.7581   -1.0463 H   0  0  0  0  0  0  0  0  0  0  0  0
    5.3133    3.8711   -1.5732 H   0  0  0  0  0  0  0  0  0  0  0  0
    4.9617    1.8321    0.6763 H   0  0  0  0  0  0  0  0  0  0  0  0
    3.7196    2.8965    0.0662 H   0  0  0  0  0  0  0  0  0  0  0  0
    8.2034    8.7981    2.0250 H   0  0  0  0  0  0  0  0  0  0  0  0
    9.5572    7.7291    2.3768 H   0  0  0  0  0  0  0  0  0  0  0  0
    9.7404    9.0210    1.1936 H   0  0  0  0  0  0  0  0  0  0  0  0
    8.1286    7.8978   -0.3318 H   0  0  0  0  0  0  0  0  0  0  0  0
    9.4495    6.8146    0.0440 H   0  0  0  0  0  0  0  0  0  0  0  0
    8.0371    5.7144    1.8009 H   0  0  0  0  0  0  0  0  0  0  0  0
    6.7160    6.7915    1.4035 H   0  0  0  0  0  0  0  0  0  0  0  0
    6.7049    5.8867   -0.9422 H   0  0  0  0  0  0  0  0  0  0  0  0
    8.0004    4.7897   -0.5151 H   0  0  0  0  0  0  0  0  0  0  0  0
    5.2236    4.8299    0.7585 H   0  0  0  0  0  0  0  0  0  0  0  0
    6.5173    3.7489    1.2304 H   0  0  0  0  0  0  0  0  0  0  0  0
    3.0364   -0.5304   -2.5810 H   0  0  0  0  0  0  0  0  0  0  0  0
    4.0980   -2.7427   -2.4572 H   0  0  0  0  0  0  0  0  0  0  0  0
    5.2506   -1.4248   -2.2104 H   0  0  0  0  0  0  0  0  0  0  0  0
    6.0906   -3.8166   -1.2242 H   0  0  0  0  0  0  0  0  0  0  0  0
    6.1320   -0.5876    0.4349 H   0  0  0  0  0  0  0  0  0  0  0  0
    8.2909    0.4819    0.9390 H   0  0  0  0  0  0  0  0  0  0  0  0
    9.1412   -0.7982    0.0704 H   0  0  0  0  0  0  0  0  0  0  0  0
    8.6158    1.0137   -1.2920 H   0  0  0  0  0  0  0  0  0  0  0  0
    7.0675   -0.9564    2.5768 H   0  0  0  0  0  0  0  0  0  0  0  0
    8.4489   -2.8783    2.8092 H   0  0  0  0  0  0  0  0  0  0  0  0
    5.0953   -2.2123    2.0446 H   0  0  0  0  0  0  0  0  0  0  0  0
    5.6283   -4.1159    3.4061 H   0  0  0  0  0  0  0  0  0  0  0  0
    6.9844   -4.3483    0.9658 H   0  0  0  0  0  0  0  0  0  0  0  0
    5.1203   -5.4986    0.6982 H   0  0  0  0  0  0  0  0  0  0  0  0
    2.1933   -1.9270    0.0021 H   0  0  0  0  0  0  0  0  0  0  0  0
    1.4094   -2.3814   -2.6626 H   0  0  0  0  0  0  0  0  0  0  0  0
    0.8030    0.0736   -1.8139 H   0  0  0  0  0  0  0  0  0  0  0  0
    0.9895   -0.0495    0.9866 H   0  0  0  0  0  0  0  0  0  0  0  0
   -0.7128   -1.8807   -1.5268 H   0  0  0  0  0  0  0  0  0  0  0  0
   -0.5095   -1.8012    0.2083 H   0  0  0  0  0  0  0  0  0  0  0  0
   -1.5105    0.5107    0.1959 H   0  0  0  0  0  0  0  0  0  0  0  0
   -1.6755    0.4201   -1.5441 H   0  0  0  0  0  0  0  0  0  0  0  0
   -3.1914   -1.5694   -1.2863 H   0  0  0  0  0  0  0  0  0  0  0  0
   -3.0035   -1.4901    0.4450 H   0  0  0  0  0  0  0  0  0  0  0  0
   -5.4489   -1.4971   -0.4198 H   0  0  0  0  0  0  0  0  0  0  0  0
   -6.6026    0.8393    0.7138 H   0  0  0  0  0  0  0  0  0  0  0  0
   -6.7368    0.9603   -1.0331 H   0  0  0  0  0  0  0  0  0  0  0  0
   -7.8445   -1.2775   -1.1049 H   0  0  0  0  0  0  0  0  0  0  0  0
   -7.7064   -1.4027    0.6419 H   0  0  0  0  0  0  0  0  0  0  0  0
   -9.1092    0.6536    0.9001 H   0  0  0  0  0  0  0  0  0  0  0  0
   -9.2500    0.7790   -0.8415 H   0  0  0  0  0  0  0  0  0  0  0  0
  -10.3741   -1.4541   -0.9139 H   0  0  0  0  0  0  0  0  0  0  0  0
  -10.2258   -1.5866    0.8261 H   0  0  0  0  0  0  0  0  0  0  0  0
  -11.6371    0.4657    1.1038 H   0  0  0  0  0  0  0  0  0  0  0  0
  -11.7902    0.5954   -0.6365 H   0  0  0  0  0  0  0  0  0  0  0  0
  -12.8933   -1.6486   -0.7077 H   0  0  0  0  0  0  0  0  0  0  0  0
  -12.7327   -1.7829    1.0322 H   0  0  0  0  0  0  0  0  0  0  0  0
  -14.5122   -0.0847   -1.7085 H   0  0  0  0  0  0  0  0  0  0  0  0
  -16.6043    1.1811   -1.4258 H   0  0  0  0  0  0  0  0  0  0  0  0
  -17.4646    1.6712    0.8459 H   0  0  0  0  0  0  0  0  0  0  0  0
  -16.2106    0.8710    2.8258 H   0  0  0  0  0  0  0  0  0  0  0  0
  -14.1202   -0.3944    2.5387 H   0  0  0  0  0  0  0  0  0  0  0  0
    3.7037    0.0727    0.2173 H   0  0  0  0  0  0  0  0  0  0  0  0
 14 15  1  0
 14 23  1  0
 14 13  1  0
 24 23  1  0
 26 25  1  0
 15 16  1  0
 23 21  1  0
 13 12  1  0
 12 11  1  0
 18 17  1  0
 25 11  1  0
 25 27  1  0
 20 19  1  0
 17 16  1  0
 16 19  1  0
 21 22  1  0
 21 19  1  0
 11 46  1  0
 28 27  1  0
 27 29  1  0
 29 30  1  0
 10  9  2  0
 46  9  1  0
  9  2  1  0
 30 31  1  0
 43 44  2  0
 43 42  1  0
 44 45  1  0
 31 32  1  0
  2  1  1  0
 42 41  2  0
 45 40  2  0
  1  8  1  0
 32 33  1  0
 32  3  2  0
 33 34  1  0
 41 40  1  0
 40 39  1  0
 38 39  1  0
 38 37  1  0
  8  7  1  0
 36 37  1  0
 36 35  1  0
 34 35  1  0
  7  6  1  0
  6  5  1  0
  5  4  1  0
  1 47  1  0
  1 48  1  0
  2 49  1  0
  2 50  1  0
  4 51  1  0
  4 52  1  0
  4 53  1  0
  5 54  1  0
  5 55  1  0
  6 56  1  0
  6 57  1  0
  7 58  1  0
  7 59  1  0
  8 60  1  0
  8 61  1  0
 11 62  1  6
 12 63  1  0
 12 64  1  0
 14 65  1  6
 16 66  1  1
 17 67  1  0
 17 68  1  0
 18 69  1  0
 19 70  1  1
 20 71  1  0
 21 72  1  1
 22 73  1  0
 23 74  1  6
 24 75  1  0
 25 76  1  1
 26 77  1  0
 27 78  1  6
 28 79  1  0
 29 80  1  0
 29 81  1  0
 30 82  1  0
 30 83  1  0
 31 84  1  0
 31 85  1  0
 33 86  1  0
 34 87  1  0
 34 88  1  0
 35 89  1  0
 35 90  1  0
 36 91  1  0
 36 92  1  0
 37 93  1  0
 37 94  1  0
 38 95  1  0
 38 96  1  0
 39 97  1  0
 39 98  1  0
 41 99  1  0
 42100  1  0
 43101  1  0
 44102  1  0
 45103  1  0
 46104  1  0
M  END
