
     RDKit          3D

 37 40  0  0  0  0  0  0  0  0999 V2000
    3.6849    2.2842    0.3517 C   0  0  0  0  0  0  0  0  0  0  0  0
    2.3235    2.4266    0.3578 C   0  0  0  0  0  0  0  0  0  0  0  0
    1.5207    1.2853    0.1698 C   0  0  0  0  0  0  0  0  0  0  0  0
   -2.0401    1.0212    0.0767 N   0  0  0  0  0  0  0  0  0  0  0  0
    0.0662    1.3836    0.1615 C   0  0  0  0  0  0  0  0  0  0  0  0
   -0.8606    0.3792    0.0295 C   0  0  0  0  0  0  0  0  0  0  0  0
   -1.8640    2.3310    0.2280 N   0  0  0  0  0  0  0  0  0  0  0  0
   -3.3406    0.4772   -0.0135 C   0  0  0  0  0  0  0  0  0  0  0  0
   -4.3155    1.1317   -0.7511 C   0  0  0  0  0  0  0  0  0  0  0  0
   -5.5893    0.5959   -0.8331 C   0  0  0  0  0  0  0  0  0  0  0  0
   -5.9053   -0.5996   -0.1966 C   0  0  0  0  0  0  0  0  0  0  0  0
   -0.6029    2.5535    0.2765 N   0  0  0  0  0  0  0  0  0  0  0  0
   -4.8975   -1.2306    0.5287 C   0  0  0  0  0  0  0  0  0  0  0  0
   -3.6282   -0.7123    0.6406 C   0  0  0  0  0  0  0  0  0  0  0  0
    3.3558   -0.0575   -0.0178 C   0  0  0  0  0  0  0  0  0  0  0  0
    2.0311    0.0846   -0.0093 N   0  0  0  0  0  0  0  0  0  0  0  0
    5.2274   -1.5586   -0.2345 N   0  0  0  0  0  0  0  0  0  0  0  0
    5.7660   -2.8956   -0.4391 C   0  0  0  0  0  0  0  0  0  0  0  0
   -7.1472   -1.0907   -0.3058 O   0  0  0  0  0  0  0  0  0  0  0  0
    6.0806   -0.5019   -0.0643 C   0  0  0  0  0  0  0  0  0  0  0  0
    3.8570   -1.4268   -0.2275 C   0  0  0  0  0  0  0  0  0  0  0  0
    5.6489    0.7586    0.1288 C   0  0  0  0  0  0  0  0  0  0  0  0
    4.2463    1.0103    0.1567 C   0  0  0  0  0  0  0  0  0  0  0  0
   -5.1957   -2.3824    1.1530 F   0  0  0  0  0  0  0  0  0  0  0  0
    3.1321   -2.3949   -0.3872 O   0  0  0  0  0  0  0  0  0  0  0  0
    4.3304    3.1414    0.4958 H   0  0  0  0  0  0  0  0  0  0  0  0
    1.8677    3.3956    0.5069 H   0  0  0  0  0  0  0  0  0  0  0  0
   -0.7661   -0.6837   -0.1085 H   0  0  0  0  0  0  0  0  0  0  0  0
   -4.0870    2.0538   -1.2666 H   0  0  0  0  0  0  0  0  0  0  0  0
   -6.3516    1.1023   -1.4104 H   0  0  0  0  0  0  0  0  0  0  0  0
   -2.8906   -1.2271    1.2430 H   0  0  0  0  0  0  0  0  0  0  0  0
    6.8496   -2.8497   -0.3952 H   0  0  0  0  0  0  0  0  0  0  0  0
    5.4126   -3.5751    0.3337 H   0  0  0  0  0  0  0  0  0  0  0  0
    5.4709   -3.2868   -1.4111 H   0  0  0  0  0  0  0  0  0  0  0  0
   -7.2513   -1.9047    0.2008 H   0  0  0  0  0  0  0  0  0  0  0  0
    7.1330   -0.7428   -0.0959 H   0  0  0  0  0  0  0  0  0  0  0  0
    6.3605    1.5608    0.2573 H   0  0  0  0  0  0  0  0  0  0  0  0
 24 13  1  0
 19 11  1  0
 13 11  2  0
 13 14  1  0
 11 10  1  0
 14  8  2  0
 10  9  2  0
  8  9  1  0
  8  4  1  0
  7  4  1  0
  7 12  2  0
  4  6  1  0
 12  5  1  0
  6  5  2  0
  5  3  1  0
  3 16  2  0
  3  2  1  0
 16 15  1  0
 25 21  2  0
  2  1  2  0
 15 21  1  0
 15 23  2  0
 21 17  1  0
  1 23  1  0
 23 22  1  0
 17 18  1  0
 17 20  1  0
 22 20  2  0
  1 26  1  0
  2 27  1  0
  6 28  1  0
  9 29  1  0
 10 30  1  0
 14 31  1  0
 18 32  1  0
 18 33  1  0
 18 34  1  0
 19 35  1  0
 20 36  1  0
 22 37  1  0
M  END
