
     RDKit          3D

 52 55  0  0  0  0  0  0  0  0999 V2000
    2.4224    1.8518   -0.8179 C   0  0  0  0  0  0  0  0  0  0  0  0
    2.5140   -0.6572   -1.1090 C   0  0  0  0  0  0  0  0  0  0  0  0
    1.1185   -0.7891   -1.6125 C   0  0  0  0  0  0  0  0  0  0  0  0
   -1.2114   -0.4471   -1.0754 C   0  0  0  0  0  0  0  0  0  0  0  0
   -3.6192   -0.0906   -0.4537 C   0  0  0  0  0  0  0  0  0  0  0  0
   -5.8657    0.1840    0.4943 C   0  0  0  0  0  0  0  0  0  0  0  0
   -7.9594    0.3879    0.8397 C   0  0  0  0  0  0  0  0  0  0  0  0
   -9.2306    0.6690    1.3315 C   0  0  0  0  0  0  0  0  0  0  0  0
  -10.1782   -0.4399   -0.6134 C   0  0  0  0  0  0  0  0  0  0  0  0
   -8.9163   -0.7319   -1.1205 C   0  0  0  0  0  0  0  0  0  0  0  0
   -7.8297   -0.3081   -0.3764 C   0  0  0  0  0  0  0  0  0  0  0  0
    3.4315   -1.6498   -0.9088 C   0  0  0  0  0  0  0  0  0  0  0  0
    4.6132   -1.0292   -0.4198 C   0  0  0  0  0  0  0  0  0  0  0  0
    5.8772   -1.4748   -0.0392 C   0  0  0  0  0  0  0  0  0  0  0  0
    6.8387   -0.5894    0.3979 C   0  0  0  0  0  0  0  0  0  0  0  0
    6.5273    0.7750    0.4525 C   0  0  0  0  0  0  0  0  0  0  0  0
    4.3470    0.3553   -0.3409 C   0  0  0  0  0  0  0  0  0  0  0  0
    7.7558    1.8708    1.0011 Cl  0  0  0  0  0  0  0  0  0  0  0  0
    6.2328   -3.1652   -0.1231 Cl  0  0  0  0  0  0  0  0  0  0  0  0
    5.2954    1.2796    0.0928 C   0  0  0  0  0  0  0  0  0  0  0  0
    3.0655    0.5576   -0.7668 N   0  0  0  0  0  0  0  0  0  0  0  0
    1.9271    2.2984    0.5495 C   0  0  0  0  0  0  0  0  0  0  0  0
    1.3904    3.5911    0.3910 O   0  0  0  0  0  0  0  0  0  0  0  0
    0.1544   -0.4281   -0.5908 N   0  0  0  0  0  0  0  0  0  0  0  0
   -2.1820   -0.0913    0.0382 C   0  0  0  0  0  0  0  0  0  0  0  0
   -4.5243    0.2141    0.6356 N   0  0  0  0  0  0  0  0  0  0  0  0
   -6.4706   -0.4173   -0.5691 N   0  0  0  0  0  0  0  0  0  0  0  0
   -6.7207    0.6830    1.3574 N   0  0  0  0  0  0  0  0  0  0  0  0
  -10.3297    0.2481    0.5931 C   0  0  0  0  0  0  0  0  0  0  0  0
    3.1351    2.5759   -1.2189 H   0  0  0  0  0  0  0  0  0  0  0  0
    1.5886    1.8054   -1.5165 H   0  0  0  0  0  0  0  0  0  0  0  0
    0.9710   -0.1267   -2.4718 H   0  0  0  0  0  0  0  0  0  0  0  0
    0.9928   -1.8126   -1.9921 H   0  0  0  0  0  0  0  0  0  0  0  0
   -1.2966    0.2862   -1.8832 H   0  0  0  0  0  0  0  0  0  0  0  0
   -1.4935   -1.4202   -1.5083 H   0  0  0  0  0  0  0  0  0  0  0  0
   -3.7294    0.6221   -1.2803 H   0  0  0  0  0  0  0  0  0  0  0  0
   -3.8600   -1.0816   -0.8479 H   0  0  0  0  0  0  0  0  0  0  0  0
   -9.3585    1.2025    2.2651 H   0  0  0  0  0  0  0  0  0  0  0  0
  -11.0565   -0.7507   -1.1640 H   0  0  0  0  0  0  0  0  0  0  0  0
   -8.7947   -1.2678   -2.0531 H   0  0  0  0  0  0  0  0  0  0  0  0
    3.2714   -2.6997   -1.0949 H   0  0  0  0  0  0  0  0  0  0  0  0
    7.8175   -0.9384    0.6953 H   0  0  0  0  0  0  0  0  0  0  0  0
    5.0888    2.3401    0.1473 H   0  0  0  0  0  0  0  0  0  0  0  0
    1.1793    1.5791    0.8978 H   0  0  0  0  0  0  0  0  0  0  0  0
    2.7580    2.2890    1.2665 H   0  0  0  0  0  0  0  0  0  0  0  0
    1.0462    3.8809    1.2403 H   0  0  0  0  0  0  0  0  0  0  0  0
    0.2437   -1.0763    0.1832 H   0  0  0  0  0  0  0  0  0  0  0  0
   -2.0852   -0.8098    0.8576 H   0  0  0  0  0  0  0  0  0  0  0  0
   -1.9232    0.8932    0.4382 H   0  0  0  0  0  0  0  0  0  0  0  0
   -4.1948    0.8643    1.3321 H   0  0  0  0  0  0  0  0  0  0  0  0
   -6.0163   -0.8672   -1.3472 H   0  0  0  0  0  0  0  0  0  0  0  0
  -11.3263    0.4558    0.9609 H   0  0  0  0  0  0  0  0  0  0  0  0
 19 14  1  0
 14 15  1  0
 14 13  2  0
 15 16  2  0
 13 12  1  0
 13 17  1  0
 12  2  2  0
 16 18  1  0
 16 20  1  0
  2  3  1  0
  2 21  1  0
 17 20  2  0
 17 21  1  0
  3 24  1  0
 21  1  1  0
  1 22  1  0
 24  4  1  0
 22 23  1  0
  4 25  1  0
 25  5  1  0
  5 26  1  0
 26  6  1  0
  6 28  2  0
  6 27  1  0
 28  7  1  0
 27 11  1  0
  7 11  1  0
  7  8  2  0
 11 10  2  0
  8 29  1  0
 10  9  1  0
 29  9  2  0
  1 30  1  0
  1 31  1  0
  3 32  1  0
  3 33  1  0
  4 34  1  0
  4 35  1  0
  5 36  1  0
  5 37  1  0
  8 38  1  0
  9 39  1  0
 10 40  1  0
 12 41  1  0
 15 42  1  0
 20 43  1  0
 22 44  1  0
 22 45  1  0
 23 46  1  0
 24 47  1  0
 25 48  1  0
 25 49  1  0
 26 50  1  0
 27 51  1  0
 29 52  1  0
M  END
