
     RDKit          3D

 43 47  0  0  0  0  0  0  0  0999 V2000
   -5.4199    3.0821   -1.1427 C   0  0  0  0  0  0  0  0  0  0  0  0
   -6.1088    1.9864   -0.5736 O   0  0  0  0  0  0  0  0  0  0  0  0
   -5.3955    0.9245   -0.1429 C   0  0  0  0  0  0  0  0  0  0  0  0
   -4.0194    0.8009   -0.2180 C   0  0  0  0  0  0  0  0  0  0  0  0
   -6.1657   -0.1144    0.4082 C   0  0  0  0  0  0  0  0  0  0  0  0
   -7.5066   -0.0243    0.4935 O   0  0  0  0  0  0  0  0  0  0  0  0
   -5.5291   -1.2520    0.8717 C   0  0  0  0  0  0  0  0  0  0  0  0
   -4.1473   -1.3704    0.7928 C   0  0  0  0  0  0  0  0  0  0  0  0
   -3.3749   -0.3519    0.2475 C   0  0  0  0  0  0  0  0  0  0  0  0
   -1.9073   -0.4776    0.1526 C   0  0  0  0  0  0  0  0  0  0  0  0
   -1.3339   -1.7017   -0.1399 C   0  0  0  0  0  0  0  0  0  0  0  0
   -1.0827    0.6577    0.3671 C   0  0  0  0  0  0  0  0  0  0  0  0
    0.2877    0.5925    0.2972 C   0  0  0  0  0  0  0  0  0  0  0  0
    0.8783   -0.6433    0.0043 C   0  0  0  0  0  0  0  0  0  0  0  0
    0.0591   -1.7635   -0.2047 C   0  0  0  0  0  0  0  0  0  0  0  0
    0.8982   -2.7953   -0.4695 N   0  0  0  0  0  0  0  0  0  0  0  0
    2.1723   -2.4334   -0.4422 N   0  0  0  0  0  0  0  0  0  0  0  0
    2.1984   -1.1483   -0.1617 C   0  0  0  0  0  0  0  0  0  0  0  0
    3.4513   -0.4351   -0.0586 C   0  0  0  0  0  0  0  0  0  0  0  0
    4.6506   -1.0442   -0.2540 N   0  0  0  0  0  0  0  0  0  0  0  0
    5.6191   -0.0941   -0.0851 C   0  0  0  0  0  0  0  0  0  0  0  0
    7.0063   -0.1370   -0.1628 C   0  0  0  0  0  0  0  0  0  0  0  0
    7.6783    1.0495    0.0751 C   0  0  0  0  0  0  0  0  0  0  0  0
    6.9916    2.2354    0.3796 C   0  0  0  0  0  0  0  0  0  0  0  0
    5.6110    2.2703    0.4541 C   0  0  0  0  0  0  0  0  0  0  0  0
    4.9141    1.0852    0.2168 C   0  0  0  0  0  0  0  0  0  0  0  0
    3.5641    0.8365    0.2246 N   0  0  0  0  0  0  0  0  0  0  0  0
   -6.1747    3.8169   -1.4102 H   0  0  0  0  0  0  0  0  0  0  0  0
   -4.7214    3.5331   -0.4331 H   0  0  0  0  0  0  0  0  0  0  0  0
   -4.8726    2.7924   -2.0434 H   0  0  0  0  0  0  0  0  0  0  0  0
   -3.4316    1.5911   -0.6665 H   0  0  0  0  0  0  0  0  0  0  0  0
   -7.8084    0.8195    0.1355 H   0  0  0  0  0  0  0  0  0  0  0  0
   -6.1195   -2.0488    1.3066 H   0  0  0  0  0  0  0  0  0  0  0  0
   -3.6752   -2.2616    1.1847 H   0  0  0  0  0  0  0  0  0  0  0  0
   -1.9403   -2.5772   -0.3324 H   0  0  0  0  0  0  0  0  0  0  0  0
   -1.5486    1.6018    0.6184 H   0  0  0  0  0  0  0  0  0  0  0  0
    0.8966    1.4681    0.4744 H   0  0  0  0  0  0  0  0  0  0  0  0
    0.6569   -3.7548   -0.6602 H   0  0  0  0  0  0  0  0  0  0  0  0
    4.7885   -2.0181   -0.4751 H   0  0  0  0  0  0  0  0  0  0  0  0
    7.5377   -1.0498   -0.3979 H   0  0  0  0  0  0  0  0  0  0  0  0
    8.7591    1.0638    0.0257 H   0  0  0  0  0  0  0  0  0  0  0  0
    7.5585    3.1391    0.5613 H   0  0  0  0  0  0  0  0  0  0  0  0
    5.0843    3.1858    0.6914 H   0  0  0  0  0  0  0  0  0  0  0  0
  1  2  1  0
  1 28  1  0
  1 29  1  0
  1 30  1  0
  2  3  1  0
  3  4  2  0
  3  5  1  0
  4  9  1  0
  4 31  1  0
  5  6  1  0
  5  7  2  0
  6 32  1  0
  7  8  1  0
  7 33  1  0
  8  9  2  0
  8 34  1  0
  9 10  1  0
 10 11  2  0
 10 12  1  0
 11 15  1  0
 11 35  1  0
 12 13  2  0
 12 36  1  0
 13 14  1  0
 13 37  1  0
 14 15  2  0
 14 18  1  0
 15 16  1  0
 16 17  1  0
 16 38  1  0
 17 18  2  0
 18 19  1  0
 19 20  1  0
 19 27  2  0
 20 21  1  0
 20 39  1  0
 21 22  2  0
 21 26  1  0
 22 23  1  0
 22 40  1  0
 23 24  2  0
 23 41  1  0
 24 25  1  0
 24 42  1  0
 25 26  2  0
 25 43  1  0
 26 27  1  0
M  END
