
     RDKit          3D

 30 32  0  0  0  0  0  0  0  0999 V2000
    3.8131   -1.8038   -0.3850 C   0  0  0  0  0  0  0  0  0  0  0  0
    4.1345    0.0764    0.9466 C   0  0  0  0  0  0  0  0  0  0  0  0
    2.7085    0.4284    0.7137 C   0  0  0  0  0  0  0  0  0  0  0  0
    1.9251   -0.4175   -0.0778 C   0  0  0  0  0  0  0  0  0  0  0  0
    0.1430    0.9185    0.2263 C   0  0  0  0  0  0  0  0  0  0  0  0
    0.9126    1.7750    1.0128 C   0  0  0  0  0  0  0  0  0  0  0  0
   -1.8389    2.1887    0.5113 O   0  0  0  0  0  0  0  0  0  0  0  0
   -1.3066    1.2202   -0.0153 C   0  0  0  0  0  0  0  0  0  0  0  0
    2.1881    1.5194    1.2469 N   0  0  0  0  0  0  0  0  0  0  0  0
    4.8427    0.7820    1.6441 O   0  0  0  0  0  0  0  0  0  0  0  0
    4.5957   -1.0507    0.3496 N   0  0  0  0  0  0  0  0  0  0  0  0
    0.6511   -0.1733   -0.3180 N   0  0  0  0  0  0  0  0  0  0  0  0
    2.5004   -1.5272   -0.6205 N   0  0  0  0  0  0  0  0  0  0  0  0
    4.2985   -2.9056   -0.9430 N   0  0  0  0  0  0  0  0  0  0  0  0
   -1.9349    0.3651   -0.8218 N   0  0  0  0  0  0  0  0  0  0  0  0
   -3.3220    0.5213   -1.2010 C   0  0  0  0  0  0  0  0  0  0  0  0
   -4.2917    0.1215   -0.1403 C   0  0  0  0  0  0  0  0  0  0  0  0
   -4.3670    0.6602    1.0896 N   0  0  0  0  0  0  0  0  0  0  0  0
   -5.3365    0.1226    1.8032 N   0  0  0  0  0  0  0  0  0  0  0  0
   -5.9191   -0.7595    1.0665 N   0  0  0  0  0  0  0  0  0  0  0  0
   -5.3101   -0.7975   -0.1376 C   0  0  0  0  0  0  0  0  0  0  0  0
    0.4888    2.6693    1.4483 H   0  0  0  0  0  0  0  0  0  0  0  0
    1.9218   -2.1572   -1.1605 H   0  0  0  0  0  0  0  0  0  0  0  0
    5.2694   -3.1310   -0.8101 H   0  0  0  0  0  0  0  0  0  0  0  0
    3.7552   -3.4927   -1.5527 H   0  0  0  0  0  0  0  0  0  0  0  0
   -1.4229   -0.4275   -1.1790 H   0  0  0  0  0  0  0  0  0  0  0  0
   -3.5079    1.5511   -1.5132 H   0  0  0  0  0  0  0  0  0  0  0  0
   -3.4908   -0.1098   -2.0703 H   0  0  0  0  0  0  0  0  0  0  0  0
   -3.7863    1.3885    1.4835 H   0  0  0  0  0  0  0  0  0  0  0  0
   -5.6327   -1.4504   -0.9321 H   0  0  0  0  0  0  0  0  0  0  0  0
 21 20  1  0
 21 17  2  0
 20 19  2  0
 17 16  1  0
 17 18  1  0
 19 18  1  0
 16 15  1  0
 15  8  1  0
  6  9  2  0
  6  5  1  0
  9  3  1  0
 10  2  2  0
  8  5  1  0
  8  7  2  0
  5 12  2  0
  3  2  1  0
  3  4  2  0
  2 11  1  0
 12  4  1  0
  4 13  1  0
 11  1  2  0
 13  1  1  0
  1 14  1  0
  6 22  1  0
 13 23  1  0
 14 24  1  0
 14 25  1  0
 15 26  1  0
 16 27  1  0
 16 28  1  0
 18 29  1  0
 21 30  1  0
M  END
