
     RDKit          3D

 44 47  0  0  0  0  0  0  0  0999 V2000
   -0.7910    2.9626    0.4622 C   0  0  0  0  0  0  0  0  0  0  0  0
    2.3711    0.2524   -0.0695 C   0  0  0  0  0  0  0  0  0  0  0  0
   -3.1010    2.2270   -0.8620 C   0  0  0  0  0  0  0  0  0  0  0  0
   -2.6794   -3.5958    0.2445 C   0  0  0  0  0  0  0  0  0  0  0  0
   -2.0295    1.3587   -0.8003 C   0  0  0  0  0  0  0  0  0  0  0  0
    4.5858    1.4286    0.1372 C   0  0  0  0  0  0  0  0  0  0  0  0
   -2.7720   -2.4281    1.0082 C   0  0  0  0  0  0  0  0  0  0  0  0
   -3.6166   -5.6979   -0.3310 C   0  0  0  0  0  0  0  0  0  0  0  0
   -3.6710   -4.4894    0.4016 O   0  0  0  0  0  0  0  0  0  0  0  0
   -1.5933   -3.7642   -0.6105 C   0  0  0  0  0  0  0  0  0  0  0  0
   -0.6245   -2.7727   -0.6984 C   0  0  0  0  0  0  0  0  0  0  0  0
   -1.7981   -1.4561    0.9170 C   0  0  0  0  0  0  0  0  0  0  0  0
   -0.7062   -1.6056    0.0554 C   0  0  0  0  0  0  0  0  0  0  0  0
    0.3293   -0.5798   -0.0276 C   0  0  0  0  0  0  0  0  0  0  0  0
    1.6601   -0.8975   -0.0445 N   0  0  0  0  0  0  0  0  0  0  0  0
    3.8150    0.3178   -0.0740 C   0  0  0  0  0  0  0  0  0  0  0  0
    4.7998   -1.0670   -0.3745 S   0  0  0  0  0  0  0  0  0  0  0  0
    6.2391   -0.1550   -0.2025 C   0  0  0  0  0  0  0  0  0  0  0  0
    5.9741    1.1541    0.0630 C   0  0  0  0  0  0  0  0  0  0  0  0
    1.5713    1.2920   -0.0864 N   0  0  0  0  0  0  0  0  0  0  0  0
    0.2983    0.8007   -0.0680 C   0  0  0  0  0  0  0  0  0  0  0  0
   -0.8534    1.7030   -0.1265 C   0  0  0  0  0  0  0  0  0  0  0  0
   -1.8589    3.8491    0.4063 C   0  0  0  0  0  0  0  0  0  0  0  0
   -3.0283    3.4835   -0.2557 C   0  0  0  0  0  0  0  0  0  0  0  0
   -4.1189    4.2650   -0.3675 O   0  0  0  0  0  0  0  0  0  0  0  0
   -4.0907    5.5508    0.2189 C   0  0  0  0  0  0  0  0  0  0  0  0
    0.1088    3.2646    0.9830 H   0  0  0  0  0  0  0  0  0  0  0  0
   -4.0005    1.9431   -1.3944 H   0  0  0  0  0  0  0  0  0  0  0  0
   -2.1067    0.4017   -1.3004 H   0  0  0  0  0  0  0  0  0  0  0  0
    4.1687    2.4030    0.3466 H   0  0  0  0  0  0  0  0  0  0  0  0
   -3.6082   -2.2985    1.6839 H   0  0  0  0  0  0  0  0  0  0  0  0
   -4.4889   -6.2763   -0.0370 H   0  0  0  0  0  0  0  0  0  0  0  0
   -3.6578   -5.5234   -1.4093 H   0  0  0  0  0  0  0  0  0  0  0  0
   -2.7175   -6.2751   -0.1008 H   0  0  0  0  0  0  0  0  0  0  0  0
   -1.4864   -4.6503   -1.2212 H   0  0  0  0  0  0  0  0  0  0  0  0
    0.2001   -2.9184   -1.3858 H   0  0  0  0  0  0  0  0  0  0  0  0
   -1.8792   -0.5690    1.5321 H   0  0  0  0  0  0  0  0  0  0  0  0
    7.1990   -0.6352   -0.3120 H   0  0  0  0  0  0  0  0  0  0  0  0
    6.7440    1.8982    0.2056 H   0  0  0  0  0  0  0  0  0  0  0  0
   -1.7598    4.8140    0.8856 H   0  0  0  0  0  0  0  0  0  0  0  0
   -5.0575    6.0047    0.0158 H   0  0  0  0  0  0  0  0  0  0  0  0
   -3.9451    5.5037    1.3014 H   0  0  0  0  0  0  0  0  0  0  0  0
   -3.3091    6.1806   -0.2145 H   0  0  0  0  0  0  0  0  0  0  0  0
    2.0266   -1.8338    0.0471 H   0  0  0  0  0  0  0  0  0  0  0  0
 22  1  2  0
  1 23  1  0
  1 27  1  0
 16  2  1  0
  2 15  1  0
  2 20  2  0
  5  3  2  0
  3 24  1  0
  3 28  1  0
 10  4  2  0
  4  9  1  0
  4  7  1  0
 22  5  1  0
  5 29  1  0
 19  6  1  0
  6 16  2  0
  6 30  1  0
 12  7  2  0
  7 31  1  0
  8  9  1  0
  8 32  1  0
  8 33  1  0
  8 34  1  0
 11 10  1  0
 10 35  1  0
 11 13  2  0
 11 36  1  0
 13 12  1  0
 12 37  1  0
 14 13  1  0
 15 14  1  0
 14 21  2  0
 17 16  1  0
 18 17  1  0
 19 18  2  0
 18 38  1  0
 19 39  1  0
 20 21  1  0
 21 22  1  0
 23 24  2  0
 23 40  1  0
 24 25  1  0
 25 26  1  0
 26 41  1  0
 26 42  1  0
 26 43  1  0
 15 44  1  0
M  END
