
     RDKit          3D

 41 42  0  0  0  0  0  0  0  0999 V2000
   -4.1814   -2.4845   -0.3057 O   0  0  0  0  0  0  0  0  0  0  0  0
   -3.0370   -1.6319    0.0891 B   0  0  1  0  0  0  0  0  0  0  0  0
   -1.7493   -2.1667   -0.3812 O   0  0  0  0  0  0  0  0  0  0  0  0
   -3.3542   -0.1491   -0.5834 C   0  0  1  0  0  0  0  0  0  0  0  0
   -4.5935    0.5394   -0.0205 C   0  0  0  0  0  0  0  0  0  0  0  0
   -2.2076    0.7433   -0.4119 N   0  0  0  0  0  0  0  0  0  0  0  0
   -1.2323    0.9129   -1.2985 C   0  0  0  0  0  0  0  0  0  0  0  0
   -1.2337    0.4637   -2.4452 O   0  0  0  0  0  0  0  0  0  0  0  0
   -0.0825    1.7508   -0.8190 C   0  0  0  0  0  0  0  0  0  0  0  0
   -0.2817    3.1107   -0.6068 C   0  0  0  0  0  0  0  0  0  0  0  0
    0.7775    3.9330   -0.2485 C   0  0  0  0  0  0  0  0  0  0  0  0
    2.0399    3.3826   -0.0909 C   0  0  0  0  0  0  0  0  0  0  0  0
    2.2352    2.0205   -0.2819 C   0  0  0  0  0  0  0  0  0  0  0  0
    1.1857    1.1837   -0.6500 C   0  0  0  0  0  0  0  0  0  0  0  0
    1.3958   -0.3010   -0.8647 C   0  0  0  0  0  0  0  0  0  0  0  0
    2.5830   -0.8635   -0.1337 C   0  0  0  0  0  0  0  0  0  0  0  0
    2.5366   -1.0357    1.2492 C   0  0  0  0  0  0  0  0  0  0  0  0
    3.6268   -1.5427    1.9402 C   0  0  0  0  0  0  0  0  0  0  0  0
    4.7866   -1.8891    1.2558 C   0  0  0  0  0  0  0  0  0  0  0  0
    4.8436   -1.7244   -0.1205 C   0  0  0  0  0  0  0  0  0  0  0  0
    3.7482   -1.2138   -0.8080 C   0  0  0  0  0  0  0  0  0  0  0  0
   -2.8810   -1.5484    1.5515 O   0  0  0  0  0  0  0  0  0  0  0  0
   -4.0293   -3.3795    0.0113 H   0  0  0  0  0  0  0  0  0  0  0  0
   -1.6338   -1.9436   -1.3071 H   0  0  0  0  0  0  0  0  0  0  0  0
   -3.4923   -0.2510   -1.6643 H   0  0  0  0  0  0  0  0  0  0  0  0
   -3.7082   -1.2531    1.9387 H   0  0  0  0  0  0  0  0  0  0  0  0
   -4.8033    1.4962   -0.5061 H   0  0  0  0  0  0  0  0  0  0  0  0
   -5.4712   -0.0949   -0.1481 H   0  0  0  0  0  0  0  0  0  0  0  0
   -4.4948    0.7397    1.0511 H   0  0  0  0  0  0  0  0  0  0  0  0
   -2.0127    1.0341    0.5339 H   0  0  0  0  0  0  0  0  0  0  0  0
   -1.2722    3.5311   -0.7326 H   0  0  0  0  0  0  0  0  0  0  0  0
    0.6156    4.9918   -0.0939 H   0  0  0  0  0  0  0  0  0  0  0  0
    2.8775    4.0097    0.1867 H   0  0  0  0  0  0  0  0  0  0  0  0
    3.2243    1.6052   -0.1343 H   0  0  0  0  0  0  0  0  0  0  0  0
    0.4975   -0.8391   -0.5492 H   0  0  0  0  0  0  0  0  0  0  0  0
    1.4999   -0.4947   -1.9358 H   0  0  0  0  0  0  0  0  0  0  0  0
    1.6365   -0.7659    1.7902 H   0  0  0  0  0  0  0  0  0  0  0  0
    3.8020   -1.0863   -1.8831 H   0  0  0  0  0  0  0  0  0  0  0  0
    3.5719   -1.6703    3.0138 H   0  0  0  0  0  0  0  0  0  0  0  0
    5.6386   -2.2862    1.7924 H   0  0  0  0  0  0  0  0  0  0  0  0
    5.7406   -1.9952   -0.6629 H   0  0  0  0  0  0  0  0  0  0  0  0
  2  1  1  1
  2  3  1  0
  2  4  1  0
  2 22  1  0
  4  5  1  0
  4  6  1  0
  6  7  1  0
  7  8  2  0
  7  9  1  0
  9 10  2  0
  9 14  1  0
 10 11  1  0
 11 12  2  0
 12 13  1  0
 13 14  2  0
 14 15  1  0
 15 16  1  0
 16 17  2  0
 16 21  1  0
 17 18  1  0
 18 19  2  0
 19 20  1  0
 20 21  2  0
  1 23  1  0
  3 24  1  0
  4 25  1  6
 22 26  1  0
  5 27  1  0
  5 28  1  0
  5 29  1  0
  6 30  1  0
 10 31  1  0
 11 32  1  0
 12 33  1  0
 13 34  1  0
 15 35  1  0
 15 36  1  0
 17 37  1  0
 21 38  1  0
 18 39  1  0
 19 40  1  0
 20 41  1  0
M  CHG  1   2  -1
M  END
