
     RDKit          3D

  5  4  0  0  0  0  0  0  0  0999 V2000
    1.2198    0.0601   -0.0128 C   0  0  0  0  0  0  0  0  0  0  0  0
   -0.5709    0.0741   -0.0447 Cl  0  0  0  0  0  0  0  0  0  0  0  0
    1.5497    0.0341    1.0206 H   0  0  0  0  0  0  0  0  0  0  0  0
    1.5715   -0.8204   -0.5406 H   0  0  0  0  0  0  0  0  0  0  0  0
    1.5850    0.9588   -0.4992 H   0  0  0  0  0  0  0  0  0  0  0  0
  1  2  1  0
  1  3  1  0
  1  4  1  0
  1  5  1  0
M  END
