
     RDKit          3D

 29 30  0  0  0  0  0  0  0  0999 V2000
   -0.6169   -0.7330    1.4122 O   0  0  0  0  0  0  0  0  0  0  0  0
   -0.9716   -0.3534    0.3289 C   0  0  0  0  0  0  0  0  0  0  0  0
    2.0951    0.3805   -0.1288 C   0  0  0  0  0  0  0  0  0  0  0  0
    3.4386    0.0413    0.0129 C   0  0  0  0  0  0  0  0  0  0  0  0
    3.8548   -1.2659   -0.2297 C   0  0  0  0  0  0  0  0  0  0  0  0
    2.9289   -2.2250   -0.6115 C   0  0  0  0  0  0  0  0  0  0  0  0
    1.5898   -1.8941   -0.7544 C   0  0  0  0  0  0  0  0  0  0  0  0
   -5.5205    0.2352    1.7178 O   0  0  0  0  0  0  0  0  0  0  0  0
    1.1917   -0.5896   -0.5133 C   0  0  0  0  0  0  0  0  0  0  0  0
    4.0424    2.2468    0.6621 O   0  0  0  0  0  0  0  0  0  0  0  0
    5.6345    0.6933    0.5102 O   0  0  0  0  0  0  0  0  0  0  0  0
   -0.1289   -0.2392   -0.7114 O   0  0  0  0  0  0  0  0  0  0  0  0
   -2.3555    0.0383   -0.0252 C   0  0  0  0  0  0  0  0  0  0  0  0
   -3.3143   -0.0325    0.9806 C   0  0  0  0  0  0  0  0  0  0  0  0
   -4.6319    0.3192    0.7113 C   0  0  0  0  0  0  0  0  0  0  0  0
   -4.9825    0.7406   -0.5697 C   0  0  0  0  0  0  0  0  0  0  0  0
   -4.0194    0.8086   -1.5647 C   0  0  0  0  0  0  0  0  0  0  0  0
   -2.7030    0.4610   -1.3076 C   0  0  0  0  0  0  0  0  0  0  0  0
    1.7590    1.3932    0.0530 H   0  0  0  0  0  0  0  0  0  0  0  0
    4.8934   -1.5464   -0.1274 H   0  0  0  0  0  0  0  0  0  0  0  0
    3.2512   -3.2397   -0.8011 H   0  0  0  0  0  0  0  0  0  0  0  0
    0.8655   -2.6397   -1.0569 H   0  0  0  0  0  0  0  0  0  0  0  0
   -6.3958    0.5088    1.4209 H   0  0  0  0  0  0  0  0  0  0  0  0
    6.2109    1.4227    0.7833 H   0  0  0  0  0  0  0  0  0  0  0  0
   -3.0419   -0.3586    1.9761 H   0  0  0  0  0  0  0  0  0  0  0  0
   -6.0073    1.0148   -0.7920 H   0  0  0  0  0  0  0  0  0  0  0  0
   -4.3056    1.1360   -2.5551 H   0  0  0  0  0  0  0  0  0  0  0  0
   -1.9702    0.5213   -2.0985 H   0  0  0  0  0  0  0  0  0  0  0  0
    4.3818    1.1125    0.4266 C   0  0  0  0  0  0  0  0  0  0  0  0
  6  7  2  0
  6  5  1  0
  7  9  1  0
  5  4  2  0
 12  9  1  0
 12  2  1  0
  9  3  2  0
 18 17  2  0
 18 13  1  0
 17 16  1  0
  4  3  1  0
  4 29  1  0
  2 13  1  0
  2  1  2  0
 13 14  2  0
 16 15  2  0
 10 29  2  0
 29 11  1  0
 14 15  1  0
 15  8  1  0
  3 19  1  0
  5 20  1  0
  6 21  1  0
  7 22  1  0
  8 23  1  0
 11 24  1  0
 14 25  1  0
 16 26  1  0
 17 27  1  0
 18 28  1  0
M  END
