
     RDKit          3D

 48 52  0  0  0  0  0  0  0  0999 V2000
   -0.4910    2.8244   -1.2251 C   0  0  0  0  0  0  0  0  0  0  0  0
   -1.5216    1.5886    1.2399 C   0  0  0  0  0  0  0  0  0  0  0  0
   -0.3647   -1.1520   -0.2643 C   0  0  0  0  0  0  0  0  0  0  0  0
    4.1683   -1.1516   -0.3193 C   0  0  0  0  0  0  0  0  0  0  0  0
    3.6340   -0.0904    0.4044 C   0  0  0  0  0  0  0  0  0  0  0  0
    5.7556    0.8285    0.7731 C   0  0  0  0  0  0  0  0  0  0  0  0
    5.5419   -1.2340   -0.5032 C   0  0  0  0  0  0  0  0  0  0  0  0
   -4.2246    0.4735   -0.0777 C   0  0  0  0  0  0  0  0  0  0  0  0
   -5.3813   -0.4999   -0.1739 C   0  0  0  0  0  0  0  0  0  0  0  0
   -5.0896   -1.8174    0.5180 C   0  0  0  0  0  0  0  0  0  0  0  0
   -3.8257   -2.4172   -0.0607 C   0  0  0  0  0  0  0  0  0  0  0  0
   -2.7119   -1.4186   -0.0989 C   0  0  0  0  0  0  0  0  0  0  0  0
   -2.8688   -0.0676   -0.1068 C   0  0  0  0  0  0  0  0  0  0  0  0
   -1.6373    0.8438   -0.1046 C   0  0  1  0  0  0  0  0  0  0  0  0
   -1.6766    1.8644   -1.2601 C   0  0  0  0  0  0  0  0  0  0  0  0
   -0.4157    3.5539    0.1119 C   0  0  0  0  0  0  0  0  0  0  0  0
   -0.3518    2.5674    1.2724 C   0  0  0  0  0  0  0  0  0  0  0  0
    2.0765   -1.3863   -0.2739 C   0  0  0  0  0  0  0  0  0  0  0  0
    4.3796    0.9221    0.9636 C   0  0  0  0  0  0  0  0  0  0  0  0
    6.3213   -0.2278    0.0546 C   0  0  0  0  0  0  0  0  0  0  0  0
   -0.3963    0.1011   -0.2903 N   0  0  0  0  0  0  0  0  0  0  0  0
   -1.4672   -1.9698   -0.1432 N   0  0  0  0  0  0  0  0  0  0  0  0
    3.1316   -1.9612   -0.7468 N   0  0  0  0  0  0  0  0  0  0  0  0
   -4.4629    1.6715   -0.0024 O   0  0  0  0  0  0  0  0  0  0  0  0
    2.2814   -0.2627    0.4290 O   0  0  0  0  0  0  0  0  0  0  0  0
    0.4385    2.2755   -1.3934 H   0  0  0  0  0  0  0  0  0  0  0  0
   -0.5866    3.5437   -2.0428 H   0  0  0  0  0  0  0  0  0  0  0  0
   -2.4534    2.1276    1.4220 H   0  0  0  0  0  0  0  0  0  0  0  0
   -1.4209    0.8510    2.0416 H   0  0  0  0  0  0  0  0  0  0  0  0
    5.9879   -2.0479   -1.0590 H   0  0  0  0  0  0  0  0  0  0  0  0
   -6.2721   -0.0197    0.2329 H   0  0  0  0  0  0  0  0  0  0  0  0
   -5.5753   -0.6786   -1.2385 H   0  0  0  0  0  0  0  0  0  0  0  0
   -4.9620   -1.6546    1.5910 H   0  0  0  0  0  0  0  0  0  0  0  0
   -5.9233   -2.5092    0.3967 H   0  0  0  0  0  0  0  0  0  0  0  0
   -3.5090   -3.2919    0.5124 H   0  0  0  0  0  0  0  0  0  0  0  0
   -4.0051   -2.7679   -1.0833 H   0  0  0  0  0  0  0  0  0  0  0  0
   -2.5974    2.4437   -1.2018 H   0  0  0  0  0  0  0  0  0  0  0  0
   -1.7010    1.3197   -2.2085 H   0  0  0  0  0  0  0  0  0  0  0  0
    0.4517    4.2188    0.1336 H   0  0  0  0  0  0  0  0  0  0  0  0
   -1.2989    4.1932    0.2247 H   0  0  0  0  0  0  0  0  0  0  0  0
   -0.3566    3.1042    2.2250 H   0  0  0  0  0  0  0  0  0  0  0  0
    0.5894    2.0142    1.2289 H   0  0  0  0  0  0  0  0  0  0  0  0
    3.9319    1.7370    1.5162 H   0  0  0  0  0  0  0  0  0  0  0  0
    7.3955   -0.2614   -0.0713 H   0  0  0  0  0  0  0  0  0  0  0  0
   -1.3618   -2.9664   -0.0338 H   0  0  0  0  0  0  0  0  0  0  0  0
    0.8180   -1.8762   -0.3790 N   0  0  0  0  0  0  0  0  0  0  0  0
    6.3983    1.5916    1.1909 H   0  0  0  0  0  0  0  0  0  0  0  0
    0.7717   -2.7934   -0.7997 H   0  0  0  0  0  0  0  0  0  0  0  0
  1 15  1  0
  1 16  1  0
  2 14  1  0
  2 17  1  0
  3 21  2  0
  3 22  1  0
  3 46  1  0
  4  5  2  0
  4  7  1  0
  4 23  1  0
  5 19  1  0
  5 25  1  0
  6 19  2  0
  6 20  1  0
  7 20  2  0
  8  9  1  0
  8 13  1  0
  8 24  2  0
  9 10  1  0
 10 11  1  0
 11 12  1  0
 12 13  2  0
 12 22  1  0
 13 14  1  0
 14 15  1  0
 14 21  1  6
 16 17  1  0
 18 46  1  0
 18 23  2  0
 18 25  1  0
  1 26  1  0
  1 27  1  0
  2 28  1  0
  2 29  1  0
  6 47  1  0
  7 30  1  0
  9 31  1  0
  9 32  1  0
 10 33  1  0
 10 34  1  0
 11 35  1  0
 11 36  1  0
 15 37  1  0
 15 38  1  0
 16 39  1  0
 16 40  1  0
 17 41  1  0
 17 42  1  0
 19 43  1  0
 20 44  1  0
 46 48  1  0
 22 45  1  0
M  END
