
     RDKit          3D

 27 28  0  0  0  0  0  0  0  0999 V2000
    4.3650   -1.8185    0.0954 O   0  0  0  0  0  0  0  0  0  0  0  0
    4.6251   -0.6417    0.0396 C   0  0  0  0  0  0  0  0  0  0  0  0
    6.0199   -0.0818    0.0013 C   0  0  0  0  0  0  0  0  0  0  0  0
    3.6539    0.3456   -0.0079 N   0  0  0  0  0  0  0  0  0  0  0  0
    2.3008    0.1667   -0.0112 C   0  0  0  0  0  0  0  0  0  0  0  0
    1.6792   -0.9587   -0.0019 N   0  0  0  0  0  0  0  0  0  0  0  0
    1.2973    1.6116   -0.0281 S   0  0  0  0  0  0  0  0  0  0  0  0
   -0.0955    0.5791   -0.0210 C   0  0  0  0  0  0  0  0  0  0  0  0
    0.3236   -0.7620   -0.0068 C   0  0  0  0  0  0  0  0  0  0  0  0
   -0.6374   -1.7717    0.0003 C   0  0  0  0  0  0  0  0  0  0  0  0
   -1.9747   -1.4306   -0.0056 C   0  0  0  0  0  0  0  0  0  0  0  0
   -1.4313    0.9309   -0.0264 C   0  0  0  0  0  0  0  0  0  0  0  0
   -2.3795   -0.0875   -0.0181 C   0  0  0  0  0  0  0  0  0  0  0  0
   -3.8090    0.3082   -0.0222 C   0  0  0  0  0  0  0  0  0  0  0  0
   -4.1881    1.4557   -0.0270 O   0  0  0  0  0  0  0  0  0  0  0  0
   -4.6270   -0.7309   -0.0204 O   0  0  0  0  0  0  0  0  0  0  0  0
   -6.0303   -0.4703   -0.0227 C   0  0  0  0  0  0  0  0  0  0  0  0
    6.2085    0.3842   -0.9675 H   0  0  0  0  0  0  0  0  0  0  0  0
    6.1609    0.6838    0.7648 H   0  0  0  0  0  0  0  0  0  0  0  0
    6.7452   -0.8754    0.1549 H   0  0  0  0  0  0  0  0  0  0  0  0
    3.9873    1.2984   -0.0437 H   0  0  0  0  0  0  0  0  0  0  0  0
   -0.3304   -2.8090    0.0096 H   0  0  0  0  0  0  0  0  0  0  0  0
   -2.7112   -2.2208    0.0001 H   0  0  0  0  0  0  0  0  0  0  0  0
   -1.7360    1.9687   -0.0360 H   0  0  0  0  0  0  0  0  0  0  0  0
   -6.3327    0.0881    0.8629 H   0  0  0  0  0  0  0  0  0  0  0  0
   -6.3319    0.0768   -0.9155 H   0  0  0  0  0  0  0  0  0  0  0  0
   -6.5120   -1.4435   -0.0168 H   0  0  0  0  0  0  0  0  0  0  0  0
 17 16  1  0
 16 14  1  0
 14 15  2  0
 14 13  1  0
 12 13  1  0
 12  8  2  0
  7  8  1  0
  7  5  1  0
  1  2  2  0
 13 11  2  0
  8  9  1  0
  2  3  1  0
  2  4  1  0
  5  4  1  0
  5  6  2  0
  9  6  1  0
  9 10  2  0
 11 10  1  0
  3 18  1  0
  3 19  1  0
  3 20  1  0
  4 21  1  0
 10 22  1  0
 11 23  1  0
 12 24  1  0
 17 25  1  0
 17 26  1  0
 17 27  1  0
M  END
