
     RDKit          3D

 76 80  0  0  0  0  0  0  0  0999 V2000
   -4.1023   -1.4204    1.3363 C   0  0  0  0  0  0  0  0  0  0  0  0
   -5.1325   -2.2399    1.7664 C   0  0  0  0  0  0  0  0  0  0  0  0
   -5.2678   -3.5208    1.2427 C   0  0  0  0  0  0  0  0  0  0  0  0
   -4.3671   -3.9804    0.2920 C   0  0  0  0  0  0  0  0  0  0  0  0
   -3.3200   -3.1698   -0.1229 C   0  0  0  0  0  0  0  0  0  0  0  0
   -3.1782   -1.8845    0.3989 C   0  0  0  0  0  0  0  0  0  0  0  0
   -2.1145   -0.9603   -0.0782 C   0  0  0  0  0  0  0  0  0  0  0  0
   -2.3343    0.2326   -0.1665 O   0  0  0  0  0  0  0  0  0  0  0  0
   -0.7831   -1.5043   -0.4415 C   0  0  0  0  0  0  0  0  0  0  0  0
   -0.2673   -2.6250    0.1624 C   0  0  0  0  0  0  0  0  0  0  0  0
    0.0155   -0.7986   -1.3731 C   0  0  0  0  0  0  0  0  0  0  0  0
    1.2672   -1.2365   -1.6937 C   0  0  0  0  0  0  0  0  0  0  0  0
    1.8267   -2.3914   -1.0871 C   0  0  0  0  0  0  0  0  0  0  0  0
    3.1327   -2.8623   -1.4059 C   0  0  0  0  0  0  0  0  0  0  0  0
    3.9826   -2.1571   -2.4261 C   0  0  0  0  0  0  0  0  0  0  0  0
    3.6393   -2.5329   -3.8721 C   0  0  0  0  0  0  0  0  0  0  0  0
    4.4715   -1.7419   -4.8683 C   0  0  0  0  0  0  0  0  0  0  0  0
    1.0322   -3.0859   -0.1366 C   0  0  0  0  0  0  0  0  0  0  0  0
    1.5537   -4.2346    0.4999 C   0  0  0  0  0  0  0  0  0  0  0  0
    2.8055   -4.6783    0.1922 C   0  0  0  0  0  0  0  0  0  0  0  0
    3.5901   -3.9914   -0.7597 C   0  0  0  0  0  0  0  0  0  0  0  0
    4.8387   -4.4649   -1.0262 O   0  0  0  0  0  0  0  0  0  0  0  0
    4.8737   -5.5645   -1.9340 C   0  0  0  0  0  0  0  0  0  0  0  0
    6.2785   -5.6918   -2.4837 C   0  0  0  0  0  0  0  0  0  0  0  0
    6.3850   -6.7907   -3.5366 C   0  0  0  0  0  0  0  0  0  0  0  0
    5.5244   -6.5677   -4.6779 N   0  0  0  0  0  0  0  0  0  0  0  0
    4.3119   -7.1723   -4.8905 C   0  0  0  0  0  0  0  0  0  0  0  0
    3.6966   -6.6313   -5.9786 C   0  0  0  0  0  0  0  0  0  0  0  0
    4.5723   -5.6213   -6.4776 C   0  0  0  0  0  0  0  0  0  0  0  0
    5.7093   -5.6127   -5.6399 C   0  0  0  0  0  0  0  0  0  0  0  0
    6.7913   -4.7594   -5.8567 C   0  0  0  0  0  0  0  0  0  0  0  0
    6.7235   -3.9296   -6.9560 C   0  0  0  0  0  0  0  0  0  0  0  0
    5.6129   -3.9255   -7.8143 C   0  0  0  0  0  0  0  0  0  0  0  0
    4.5264   -4.7478   -7.5729 C   0  0  0  0  0  0  0  0  0  0  0  0
    3.4526   -4.8338   -8.4148 O   0  0  0  0  0  0  0  0  0  0  0  0
    2.5353   -3.7531   -8.5481 C   0  0  2  0  0  0  0  0  0  0  0  0
    1.4292   -4.2948   -9.4545 C   0  0  0  0  0  0  0  0  0  0  0  0
    3.1589   -2.5124   -9.1821 C   0  0  0  0  0  0  0  0  0  0  0  0
    1.8849   -3.4684   -7.1894 C   0  0  0  0  0  0  0  0  0  0  0  0
    1.5140   -2.2002   -7.0604 O   0  0  0  0  0  0  0  0  0  0  0  0
    1.6709   -4.3083   -6.3585 O   0  0  0  0  0  0  0  0  0  0  0  0
    1.0359   -2.0827   -6.2253 H   0  0  0  0  0  0  0  0  0  0  0  0
    5.6356   -3.2879   -8.6863 H   0  0  0  0  0  0  0  0  0  0  0  0
    7.5498   -3.2653   -7.1738 H   0  0  0  0  0  0  0  0  0  0  0  0
    7.6576   -4.7526   -5.2076 H   0  0  0  0  0  0  0  0  0  0  0  0
    3.9792   -7.9617   -4.2337 H   0  0  0  0  0  0  0  0  0  0  0  0
    2.7366   -6.9167   -6.3726 H   0  0  0  0  0  0  0  0  0  0  0  0
    7.4179   -6.8740   -3.8784 H   0  0  0  0  0  0  0  0  0  0  0  0
    6.1187   -7.7582   -3.1096 H   0  0  0  0  0  0  0  0  0  0  0  0
    6.5898   -4.7343   -2.9088 H   0  0  0  0  0  0  0  0  0  0  0  0
    6.9778   -5.9260   -1.6774 H   0  0  0  0  0  0  0  0  0  0  0  0
    4.5745   -6.4885   -1.4240 H   0  0  0  0  0  0  0  0  0  0  0  0
    4.1587   -5.3939   -2.7446 H   0  0  0  0  0  0  0  0  0  0  0  0
    3.2147   -5.5541    0.6806 H   0  0  0  0  0  0  0  0  0  0  0  0
    0.9477   -4.7573    1.2292 H   0  0  0  0  0  0  0  0  0  0  0  0
   -0.8425   -3.1674    0.9027 H   0  0  0  0  0  0  0  0  0  0  0  0
   -0.3778    0.0895   -1.8497 H   0  0  0  0  0  0  0  0  0  0  0  0
    1.8398   -0.6818   -2.4239 H   0  0  0  0  0  0  0  0  0  0  0  0
    3.8861   -1.0746   -2.3061 H   0  0  0  0  0  0  0  0  0  0  0  0
    5.0347   -2.3814   -2.2485 H   0  0  0  0  0  0  0  0  0  0  0  0
    3.8061   -3.6017   -4.0253 H   0  0  0  0  0  0  0  0  0  0  0  0
    2.5754   -2.3641   -4.0577 H   0  0  0  0  0  0  0  0  0  0  0  0
    4.2892   -0.6696   -4.7735 H   0  0  0  0  0  0  0  0  0  0  0  0
    5.5371   -1.9180   -4.7154 H   0  0  0  0  0  0  0  0  0  0  0  0
    4.2471   -2.0331   -5.8937 H   0  0  0  0  0  0  0  0  0  0  0  0
   -2.6301   -3.5360   -0.8722 H   0  0  0  0  0  0  0  0  0  0  0  0
   -4.4779   -4.9716   -0.1270 H   0  0  0  0  0  0  0  0  0  0  0  0
   -6.0759   -4.1587    1.5762 H   0  0  0  0  0  0  0  0  0  0  0  0
   -5.8339   -1.8793    2.5073 H   0  0  0  0  0  0  0  0  0  0  0  0
   -4.0041   -0.4216    1.7413 H   0  0  0  0  0  0  0  0  0  0  0  0
    0.6235   -3.5693   -9.5592 H   0  0  0  0  0  0  0  0  0  0  0  0
    1.8324   -4.4943  -10.4478 H   0  0  0  0  0  0  0  0  0  0  0  0
    1.0105   -5.2188   -9.0560 H   0  0  0  0  0  0  0  0  0  0  0  0
    3.8557   -1.9969   -8.5230 H   0  0  0  0  0  0  0  0  0  0  0  0
    2.3849   -1.8020   -9.4677 H   0  0  0  0  0  0  0  0  0  0  0  0
    3.6898   -2.8027  -10.0890 H   0  0  0  0  0  0  0  0  0  0  0  0
  1  2  2  0
  1  6  1  0
  1 70  1  0
  2  3  1  0
  2 69  1  0
  3  4  2  0
  3 68  1  0
  4  5  1  0
  4 67  1  0
  5  6  2  0
  5 66  1  0
  6  7  1  0
  7  9  1  0
  7  8  2  0
  9 10  2  0
  9 11  1  0
 10 18  1  0
 10 56  1  0
 11 57  1  0
 11 12  2  0
 12 58  1  0
 12 13  1  0
 13 18  2  0
 13 14  1  0
 14 21  2  0
 14 15  1  0
 15 59  1  0
 15 60  1  0
 15 16  1  0
 16 61  1  0
 16 62  1  0
 16 17  1  0
 17 63  1  0
 17 64  1  0
 17 65  1  0
 18 19  1  0
 19 20  2  0
 19 55  1  0
 20 21  1  0
 20 54  1  0
 21 22  1  0
 22 23  1  0
 23 24  1  0
 23 52  1  0
 23 53  1  0
 24 25  1  0
 24 50  1  0
 24 51  1  0
 25 26  1  0
 25 48  1  0
 25 49  1  0
 26 30  1  0
 26 27  1  0
 27 46  1  0
 27 28  2  0
 28 47  1  0
 28 29  1  0
 29 34  1  0
 29 30  2  0
 30 31  1  0
 31 32  2  0
 31 45  1  0
 32 33  1  0
 32 44  1  0
 33 34  2  0
 33 43  1  0
 34 35  1  0
 36 35  1  1
 36 39  1  0
 36 37  1  0
 36 38  1  0
 37 71  1  0
 37 72  1  0
 37 73  1  0
 38 74  1  0
 38 75  1  0
 38 76  1  0
 39 40  1  0
 39 41  2  0
 40 42  1  0
M  END
