
     RDKit          3D

 32 32  0  0  0  0  0  0  0  0999 V2000
    5.2047   -1.0795   -0.0671 C   0  0  0  0  0  0  0  0  0  0  0  0
    3.8876   -0.7123    0.6025 C   0  0  1  0  0  0  0  0  0  0  0  0
    4.1249    0.2330    1.7812 C   0  0  0  0  0  0  0  0  0  0  0  0
    2.9703   -0.2011   -0.4073 N   0  0  0  0  0  0  0  0  0  0  0  0
    1.6261    0.0575    0.0596 C   0  0  0  0  0  0  0  0  0  0  0  0
    0.6765    0.3239   -1.1083 C   0  0  2  0  0  0  0  0  0  0  0  0
    1.0796    1.4492   -1.8534 O   0  0  0  0  0  0  0  0  0  0  0  0
   -0.7513    0.4216   -0.6113 C   0  0  0  0  0  0  0  0  0  0  0  0
   -1.3944   -0.7380   -0.1752 C   0  0  0  0  0  0  0  0  0  0  0  0
   -1.4378    1.6234   -0.5413 C   0  0  0  0  0  0  0  0  0  0  0  0
   -2.7339    1.6705   -0.0355 C   0  0  0  0  0  0  0  0  0  0  0  0
   -3.3673    0.5215    0.4035 C   0  0  0  0  0  0  0  0  0  0  0  0
   -4.6263    0.6013    0.8881 O   0  0  0  0  0  0  0  0  0  0  0  0
   -2.6821   -0.6996    0.3283 C   0  0  0  0  0  0  0  0  0  0  0  0
   -3.3554   -1.7889    0.7657 O   0  0  0  0  0  0  0  0  0  0  0  0
    5.8940   -1.5286    0.6487 H   0  0  0  0  0  0  0  0  0  0  0  0
    5.0477   -1.7908   -0.8785 H   0  0  0  0  0  0  0  0  0  0  0  0
    5.6921   -0.1943   -0.4837 H   0  0  0  0  0  0  0  0  0  0  0  0
    3.4385   -1.6331    0.9924 H   0  0  0  0  0  0  0  0  0  0  0  0
    4.5814    1.1666    1.4423 H   0  0  0  0  0  0  0  0  0  0  0  0
    3.1968    0.4824    2.2975 H   0  0  0  0  0  0  0  0  0  0  0  0
    4.7952   -0.2181    2.5147 H   0  0  0  0  0  0  0  0  0  0  0  0
    3.3586    0.6424   -0.8141 H   0  0  0  0  0  0  0  0  0  0  0  0
    1.2731   -0.8281    0.5942 H   0  0  0  0  0  0  0  0  0  0  0  0
    1.5428    0.8974    0.7695 H   0  0  0  0  0  0  0  0  0  0  0  0
    0.7504   -0.5252   -1.7957 H   0  0  0  0  0  0  0  0  0  0  0  0
    1.2204    2.1881   -1.2510 H   0  0  0  0  0  0  0  0  0  0  0  0
   -0.8808   -1.6934   -0.2339 H   0  0  0  0  0  0  0  0  0  0  0  0
   -0.9843    2.5451   -0.8799 H   0  0  0  0  0  0  0  0  0  0  0  0
   -3.2620    2.6148    0.0191 H   0  0  0  0  0  0  0  0  0  0  0  0
   -4.9478   -0.2721    1.1399 H   0  0  0  0  0  0  0  0  0  0  0  0
   -2.8122   -2.5812    0.6902 H   0  0  0  0  0  0  0  0  0  0  0  0
  1  2  1  0
  2  3  1  0
  2  4  1  0
  4  5  1  0
  5  6  1  0
  6  7  1  0
  6  8  1  0
  8  9  2  0
  8 10  1  0
  9 14  1  0
 10 11  2  0
 11 12  1  0
 12 13  1  0
 12 14  2  0
 14 15  1  0
  1 16  1  0
  1 17  1  0
  1 18  1  0
  2 19  1  1
  3 20  1  0
  3 21  1  0
  3 22  1  0
  4 23  1  0
  5 24  1  0
  5 25  1  0
  6 26  1  6
  7 27  1  0
  9 28  1  0
 10 29  1  0
 11 30  1  0
 13 31  1  0
 15 32  1  0
M  END
