
     RDKit          3D

 35 36  0  0  0  0  0  0  0  0999 V2000
   -1.2434    0.8975   -0.3379 C   0  0  0  0  0  0  0  0  0  0  0  0
   -1.9896    2.0684   -0.4030 C   0  0  0  0  0  0  0  0  0  0  0  0
   -3.3583    2.0423   -0.2714 C   0  0  0  0  0  0  0  0  0  0  0  0
    1.8990   -2.0336   -0.9573 C   0  0  0  0  0  0  0  0  0  0  0  0
    1.3179   -3.6895   -2.5540 C   0  0  0  0  0  0  0  0  0  0  0  0
    3.0792   -1.6981   -1.6160 C   0  0  0  0  0  0  0  0  0  0  0  0
    3.8916   -0.6863   -1.1298 C   0  0  0  0  0  0  0  0  0  0  0  0
   -4.0063    0.8232   -0.0536 C   0  0  0  0  0  0  0  0  0  0  0  0
    3.5359    0.0061    0.0173 C   0  0  0  0  0  0  0  0  0  0  0  0
    2.3670   -0.3062    0.6910 C   0  0  0  0  0  0  0  0  0  0  0  0
    1.5572   -1.3183    0.1993 C   0  0  0  0  0  0  0  0  0  0  0  0
   -5.4700    0.7480    0.0838 C   0  0  0  0  0  0  0  0  0  0  0  0
    0.0783   -1.7308    1.0823 S   0  0  2  0  0  0  0  0  0  0  0  0
   -0.0728   -0.7495    2.1416 O   0  0  0  0  0  0  0  0  0  0  0  0
   -1.8684   -0.3097   -0.0958 C   0  0  0  0  0  0  0  0  0  0  0  0
   -3.2650   -0.3635    0.0548 C   0  0  0  0  0  0  0  0  0  0  0  0
   -3.8070   -1.5539    0.2767 O   0  0  0  0  0  0  0  0  0  0  0  0
   -6.0629   -0.3012    0.2734 O   0  0  0  0  0  0  0  0  0  0  0  0
   -6.0827    1.9055   -0.0198 O   0  0  0  0  0  0  0  0  0  0  0  0
   -1.1753    3.5702   -0.6808 Cl  0  0  0  0  0  0  0  0  0  0  0  0
    0.0969   -3.1453    1.3960 O   0  0  0  0  0  0  0  0  0  0  0  0
    1.0538   -2.9808   -1.3519 O   0  0  0  0  0  0  0  0  0  0  0  0
   -0.1728    0.9310   -0.4901 H   0  0  0  0  0  0  0  0  0  0  0  0
   -3.9276    2.9581   -0.3421 H   0  0  0  0  0  0  0  0  0  0  0  0
    1.3709   -3.0170   -3.4121 H   0  0  0  0  0  0  0  0  0  0  0  0
    2.2435   -4.2639   -2.4859 H   0  0  0  0  0  0  0  0  0  0  0  0
    0.4853   -4.3736   -2.6887 H   0  0  0  0  0  0  0  0  0  0  0  0
    3.3834   -2.2179   -2.5137 H   0  0  0  0  0  0  0  0  0  0  0  0
    4.8030   -0.4484   -1.6615 H   0  0  0  0  0  0  0  0  0  0  0  0
    2.0821    0.2284    1.5867 H   0  0  0  0  0  0  0  0  0  0  0  0
   -1.5588   -2.3545   -0.3554 H   0  0  0  0  0  0  0  0  0  0  0  0
   -4.7819   -1.4411    0.3276 H   0  0  0  0  0  0  0  0  0  0  0  0
   -7.0414    1.7917    0.0696 H   0  0  0  0  0  0  0  0  0  0  0  0
   -1.1358   -1.5013   -0.0127 N   0  0  0  0  0  0  0  0  0  0  0  0
    4.6455    1.3836    0.6672 Br  0  0  0  0  0  0  0  0  0  0  0  0
 14 13  2  0
 20  2  1  0
 21 13  2  0
 13 11  1  0
 13 34  1  6
  1  2  2  0
  1 15  1  0
 35  9  1  0
 10 11  1  0
 10  9  2  0
  2  3  1  0
 11  4  2  0
 34 15  1  0
  9  7  1  0
 15 16  2  0
  3  8  2  0
  4 22  1  0
  4  6  1  0
  7  6  2  0
 22  5  1  0
 16  8  1  0
 16 17  1  0
  8 12  1  0
 12 18  2  0
 12 19  1  0
  1 23  1  0
  3 24  1  0
  5 25  1  0
  5 26  1  0
  5 27  1  0
  6 28  1  0
  7 29  1  0
 10 30  1  0
 34 31  1  0
 17 32  1  0
 19 33  1  0
M  END
