
     RDKit          3D

 55 57  0  0  0  0  0  0  0  0999 V2000
    2.8004    0.1825   -0.3327 C   0  0  0  0  0  0  0  0  0  0  0  0
    1.2272    1.3906    1.2094 N   0  0  0  0  0  0  0  0  0  0  0  0
    2.7815    0.1295   -1.5475 O   0  0  0  0  0  0  0  0  0  0  0  0
    1.4938    0.1489    0.4947 C   0  0  1  0  0  0  0  0  0  0  0  0
    5.4879    1.5913   -0.8824 C   0  0  0  0  0  0  0  0  0  0  0  0
    5.6503   -0.9228   -0.8927 C   0  0  0  0  0  0  0  0  0  0  0  0
    6.1796    0.3639    1.1731 C   0  0  0  0  0  0  0  0  0  0  0  0
    1.5860    3.6226    1.4618 O   0  0  0  0  0  0  0  0  0  0  0  0
    0.5239    2.3902   -1.5637 O   0  0  0  0  0  0  0  0  0  0  0  0
   -1.3035    1.8240   -2.7203 O   0  0  0  0  0  0  0  0  0  0  0  0
    1.8144    2.5651    0.9025 C   0  0  0  0  0  0  0  0  0  0  0  0
   -3.2878    0.2750    1.1801 C   0  0  0  0  0  0  0  0  0  0  0  0
   -2.9063    2.5358    0.4273 C   0  0  0  0  0  0  0  0  0  0  0  0
   -0.6107   -3.9084    0.6059 C   0  0  0  0  0  0  0  0  0  0  0  0
   -2.0343    0.2752    1.7745 C   0  0  0  0  0  0  0  0  0  0  0  0
   -1.6587    2.5180    1.0299 C   0  0  0  0  0  0  0  0  0  0  0  0
    0.1409   -2.7585    0.6744 C   0  0  0  0  0  0  0  0  0  0  0  0
   -2.0702   -2.9477   -1.1007 C   0  0  0  0  0  0  0  0  0  0  0  0
    0.2036    1.3336    2.2453 C   0  0  0  0  0  0  0  0  0  0  0  0
    3.9066    0.2240    0.4220 N   0  0  0  0  0  0  0  0  0  0  0  0
   -1.4172   -0.6180   -1.6801 N   0  0  0  0  0  0  0  0  0  0  0  0
   -3.7063    1.4054    0.4998 C   0  0  0  0  0  0  0  0  0  0  0  0
   -1.7011   -3.9862   -0.2794 C   0  0  0  0  0  0  0  0  0  0  0  0
   -1.1978    1.3810    1.6889 C   0  0  0  0  0  0  0  0  0  0  0  0
   -0.4326    0.2457   -1.2739 C   0  0  0  0  0  0  0  0  0  0  0  0
    0.3445   -0.3635   -0.3159 C   0  0  0  0  0  0  0  0  0  0  0  0
   -1.2955   -1.7894   -1.0164 C   0  0  0  0  0  0  0  0  0  0  0  0
   -0.1909   -1.6726   -0.1477 C   0  0  0  0  0  0  0  0  0  0  0  0
    5.2905    0.3127   -0.0666 C   0  0  1  0  0  0  0  0  0  0  0  0
    1.6665   -0.6014    1.2758 H   0  0  0  0  0  0  0  0  0  0  0  0
    4.8675    1.6025   -1.7771 H   0  0  0  0  0  0  0  0  0  0  0  0
    5.2465    2.4729   -0.2857 H   0  0  0  0  0  0  0  0  0  0  0  0
    6.5295    1.6762   -1.1945 H   0  0  0  0  0  0  0  0  0  0  0  0
    6.6968   -0.8723   -1.1965 H   0  0  0  0  0  0  0  0  0  0  0  0
    5.5162   -1.8324   -0.3051 H   0  0  0  0  0  0  0  0  0  0  0  0
    5.0422   -1.0001   -1.7914 H   0  0  0  0  0  0  0  0  0  0  0  0
    5.9599    1.2382    1.7893 H   0  0  0  0  0  0  0  0  0  0  0  0
    6.0576   -0.5288    1.7899 H   0  0  0  0  0  0  0  0  0  0  0  0
    7.2264    0.4223    0.8760 H   0  0  0  0  0  0  0  0  0  0  0  0
   -1.2193    2.7188   -3.0819 H   0  0  0  0  0  0  0  0  0  0  0  0
    2.5619    2.4938    0.1061 H   0  0  0  0  0  0  0  0  0  0  0  0
   -3.9203   -0.6004    1.2370 H   0  0  0  0  0  0  0  0  0  0  0  0
   -3.2495    3.4200   -0.0925 H   0  0  0  0  0  0  0  0  0  0  0  0
   -0.3668   -4.7561    1.2311 H   0  0  0  0  0  0  0  0  0  0  0  0
   -1.7020   -0.6166    2.2923 H   0  0  0  0  0  0  0  0  0  0  0  0
   -1.0331    3.3986    0.9684 H   0  0  0  0  0  0  0  0  0  0  0  0
    0.9759   -2.7104    1.3615 H   0  0  0  0  0  0  0  0  0  0  0  0
   -2.9149   -3.0197   -1.7723 H   0  0  0  0  0  0  0  0  0  0  0  0
    0.3467    0.4136    2.8161 H   0  0  0  0  0  0  0  0  0  0  0  0
    0.3710    2.1620    2.9322 H   0  0  0  0  0  0  0  0  0  0  0  0
    3.7849    0.2329    1.4234 H   0  0  0  0  0  0  0  0  0  0  0  0
   -2.1229   -0.4106   -2.3682 H   0  0  0  0  0  0  0  0  0  0  0  0
   -5.2581    1.4084   -0.2763 Cl  0  0  0  0  0  0  0  0  0  0  0  0
   -2.6146   -5.4602   -0.3267 Cl  0  0  0  0  0  0  0  0  0  0  0  0
   -0.3328    1.5893   -1.8443 C   0  0  0  0  0  0  0  0  0  0  0  0
  3  1  2  0
 20  1  1  0
  1  4  1  0
 19  2  1  0
  4  2  1  0
  2 11  1  0
 26  4  1  0
  4 30  1  1
  5 29  1  0
  5 31  1  0
  5 32  1  0
  5 33  1  0
  6 29  1  0
  6 34  1  0
  6 35  1  0
  6 36  1  0
  7 29  1  0
  7 37  1  0
  7 38  1  0
  7 39  1  0
 11  8  2  0
 55  9  2  0
 55 10  1  0
 10 40  1  0
 22 53  1  0
 54 23  1  0
 11 41  1  0
 15 12  2  0
 12 22  1  0
 12 42  1  0
 22 13  2  0
 16 13  1  0
 13 43  1  0
 14 23  2  0
 14 17  1  0
 14 44  1  0
 15 24  1  0
 15 45  1  0
 24 16  2  0
 16 46  1  0
 17 28  2  0
 17 47  1  0
 23 18  1  0
 18 27  2  0
 18 48  1  0
 19 24  1  0
 19 49  1  0
 19 50  1  0
 29 20  1  1
 20 51  1  0
 27 21  1  0
 21 25  1  0
 25 55  1  0
 26 25  2  0
 28 26  1  0
 28 27  1  0
 21 52  1  0
M  END
