
     RDKit          3D

 53 57  0  0  0  0  0  0  0  0999 V2000
    5.5222   -1.6815   -0.1514 N   0  0  0  0  0  0  0  0  0  0  0  0
   -3.5248    2.1090   -1.3812 N   0  0  0  0  0  0  0  0  0  0  0  0
    4.3526   -1.0193   -0.2539 C   0  0  0  0  0  0  0  0  0  0  0  0
    5.6908   -2.9964   -0.7582 C   0  0  0  0  0  0  0  0  0  0  0  0
    7.1947   -3.2267   -0.6707 C   0  0  0  0  0  0  0  0  0  0  0  0
    7.5907   -2.4771    0.5970 C   0  0  0  0  0  0  0  0  0  0  0  0
    6.7168   -1.2280    0.5524 C   0  0  0  0  0  0  0  0  0  0  0  0
    0.9342    1.7342    0.2577 C   0  0  0  0  0  0  0  0  0  0  0  0
   -2.1600   -0.3117    0.7403 C   0  0  0  0  0  0  0  0  0  0  0  0
   -4.5966    1.2889   -1.2184 C   0  0  0  0  0  0  0  0  0  0  0  0
   -4.8029   -2.1095   -0.7010 C   0  0  0  0  0  0  0  0  0  0  0  0
   -6.4470   -0.6267    0.2484 C   0  0  0  0  0  0  0  0  0  0  0  0
    3.3686   -1.5051   -0.8001 O   0  0  0  0  0  0  0  0  0  0  0  0
    4.3499    0.2397    0.3060 N   0  0  0  0  0  0  0  0  0  0  0  0
    3.2933    1.1498    0.2952 C   0  0  0  0  0  0  0  0  0  0  0  0
    3.6070    2.5077    0.3799 C   0  0  0  0  0  0  0  0  0  0  0  0
    2.6098    3.4655    0.4158 C   0  0  0  0  0  0  0  0  0  0  0  0
    1.9515    0.7790    0.2509 C   0  0  0  0  0  0  0  0  0  0  0  0
    1.2889    3.0743    0.3437 C   0  0  0  0  0  0  0  0  0  0  0  0
    0.3408    4.0200    0.3974 F   0  0  0  0  0  0  0  0  0  0  0  0
   -0.4710    1.2909    0.1693 C   0  0  0  0  0  0  0  0  0  0  0  0
   -1.2923    1.9823   -0.5776 N   0  0  0  0  0  0  0  0  0  0  0  0
   -2.5525    1.5564   -0.6945 C   0  0  0  0  0  0  0  0  0  0  0  0
   -2.9888    0.3936   -0.0668 N   0  0  0  0  0  0  0  0  0  0  0  0
   -0.8838    0.1220    0.8750 C   0  0  0  0  0  0  0  0  0  0  0  0
   -4.3061    0.2149   -0.4123 C   0  0  0  0  0  0  0  0  0  0  0  0
   -5.0243   -0.8738    0.0538 N   0  0  0  0  0  0  0  0  0  0  0  0
   -7.0748   -1.8300    0.9257 C   0  0  0  0  0  0  0  0  0  0  0  0
   -6.8608   -3.0135    0.1892 O   0  0  0  0  0  0  0  0  0  0  0  0
   -5.4835   -3.2595    0.0126 C   0  0  0  0  0  0  0  0  0  0  0  0
    5.1401   -3.7583   -0.1983 H   0  0  0  0  0  0  0  0  0  0  0  0
    5.3247   -3.0096   -1.7847 H   0  0  0  0  0  0  0  0  0  0  0  0
    7.4455   -4.2860   -0.6369 H   0  0  0  0  0  0  0  0  0  0  0  0
    7.6938   -2.7922   -1.5397 H   0  0  0  0  0  0  0  0  0  0  0  0
    7.3464   -3.0725    1.4790 H   0  0  0  0  0  0  0  0  0  0  0  0
    8.6507   -2.2315    0.6426 H   0  0  0  0  0  0  0  0  0  0  0  0
    7.2145   -0.4208    0.0041 H   0  0  0  0  0  0  0  0  0  0  0  0
    6.4795   -0.8618    1.5534 H   0  0  0  0  0  0  0  0  0  0  0  0
   -5.5466    1.5049   -1.6837 H   0  0  0  0  0  0  0  0  0  0  0  0
   -5.1877   -2.0164   -1.7265 H   0  0  0  0  0  0  0  0  0  0  0  0
   -3.7337   -2.3177   -0.7720 H   0  0  0  0  0  0  0  0  0  0  0  0
   -6.5765    0.2507    0.8841 H   0  0  0  0  0  0  0  0  0  0  0  0
   -6.9603   -0.4303   -0.7042 H   0  0  0  0  0  0  0  0  0  0  0  0
    5.2396    0.6406    0.5575 H   0  0  0  0  0  0  0  0  0  0  0  0
    4.6425    2.8236    0.4216 H   0  0  0  0  0  0  0  0  0  0  0  0
    2.8599    4.5151    0.4957 H   0  0  0  0  0  0  0  0  0  0  0  0
    1.6812   -0.2632    0.1894 H   0  0  0  0  0  0  0  0  0  0  0  0
   -0.2060   -0.4055    1.5283 H   0  0  0  0  0  0  0  0  0  0  0  0
   -6.6668   -1.9290    1.9414 H   0  0  0  0  0  0  0  0  0  0  0  0
   -8.1528   -1.6857    1.0086 H   0  0  0  0  0  0  0  0  0  0  0  0
   -5.3864   -4.1718   -0.5772 H   0  0  0  0  0  0  0  0  0  0  0  0
   -4.9934   -3.4271    0.9822 H   0  0  0  0  0  0  0  0  0  0  0  0
   -2.5671   -1.1750    1.2466 H   0  0  0  0  0  0  0  0  0  0  0  0
  6  5  1  0
  6  7  1  0
  5  4  1  0
  4  1  1  0
  7  1  1  0
  1  3  1  0
  3 13  2  0
  3 14  1  0
 14 15  1  0
 15 18  1  0
 15 16  2  0
  2 10  1  0
  2 23  2  0
 18  8  2  0
 22 23  1  0
 22 21  2  0
 10 26  2  0
 16 17  1  0
 23 24  1  0
  8 21  1  0
  8 19  1  0
 21 25  1  0
 17 19  2  0
 26 24  1  0
 26 27  1  0
 19 20  1  0
 24  9  1  0
 12 27  1  0
 12 28  1  0
 25  9  2  0
 27 11  1  0
 11 30  1  0
 28 29  1  0
 29 30  1  0
  4 31  1  0
  4 32  1  0
  5 33  1  0
  5 34  1  0
  6 35  1  0
  6 36  1  0
  7 37  1  0
  7 38  1  0
  9 53  1  0
 10 39  1  0
 11 40  1  0
 11 41  1  0
 12 42  1  0
 12 43  1  0
 14 44  1  0
 16 45  1  0
 17 46  1  0
 18 47  1  0
 25 48  1  0
 28 49  1  0
 28 50  1  0
 30 51  1  0
 30 52  1  0
M  END
