
     RDKit          3D

 33 34  0  0  0  0  0  0  0  0999 V2000
   -4.0968    2.2750    0.0418 C   0  0  0  0  0  0  0  0  0  0  0  0
   -3.1627    1.0989   -0.0024 C   0  0  0  0  0  0  0  0  0  0  0  0
   -1.7850    1.2761    0.0095 C   0  0  0  0  0  0  0  0  0  0  0  0
   -3.6600   -0.2050   -0.0580 C   0  0  0  0  0  0  0  0  0  0  0  0
   -4.9822   -0.4736   -0.0756 O   0  0  0  0  0  0  0  0  0  0  0  0
   -2.7988   -1.3102   -0.1013 C   0  0  0  0  0  0  0  0  0  0  0  0
   -3.3590   -2.7002   -0.1697 C   0  0  0  0  0  0  0  0  0  0  0  0
   -1.4335   -1.0851   -0.0851 C   0  0  0  0  0  0  0  0  0  0  0  0
   -0.8939    0.2040   -0.0277 C   0  0  0  0  0  0  0  0  0  0  0  0
    0.5397    0.4766   -0.0100 C   0  0  0  0  0  0  0  0  0  0  0  0
    1.5261   -0.4298    0.0417 C   0  0  0  0  0  0  0  0  0  0  0  0
    2.9606   -0.1477    0.0497 C   0  0  0  0  0  0  0  0  0  0  0  0
    3.8534   -1.2109    0.2188 C   0  0  0  0  0  0  0  0  0  0  0  0
    5.2249   -1.0030    0.2372 C   0  0  0  0  0  0  0  0  0  0  0  0
    5.7378    0.2772    0.0829 C   0  0  0  0  0  0  0  0  0  0  0  0
    4.8632    1.3454   -0.0902 C   0  0  0  0  0  0  0  0  0  0  0  0
    3.4945    1.1374   -0.1081 C   0  0  0  0  0  0  0  0  0  0  0  0
   -4.7372    2.3274   -0.8423 H   0  0  0  0  0  0  0  0  0  0  0  0
   -4.7480    2.2525    0.9193 H   0  0  0  0  0  0  0  0  0  0  0  0
   -3.5391    3.2088    0.0844 H   0  0  0  0  0  0  0  0  0  0  0  0
   -1.3942    2.2870    0.0523 H   0  0  0  0  0  0  0  0  0  0  0  0
   -5.5057    0.3343   -0.0422 H   0  0  0  0  0  0  0  0  0  0  0  0
   -3.9798   -2.8420   -1.0560 H   0  0  0  0  0  0  0  0  0  0  0  0
   -2.5584   -3.4372   -0.2032 H   0  0  0  0  0  0  0  0  0  0  0  0
   -3.9846   -2.9280    0.6951 H   0  0  0  0  0  0  0  0  0  0  0  0
   -0.7759   -1.9460   -0.1224 H   0  0  0  0  0  0  0  0  0  0  0  0
    0.7954    1.5319   -0.0376 H   0  0  0  0  0  0  0  0  0  0  0  0
    1.2741   -1.4849    0.0910 H   0  0  0  0  0  0  0  0  0  0  0  0
    3.4646   -2.2153    0.3413 H   0  0  0  0  0  0  0  0  0  0  0  0
    5.8935   -1.8436    0.3717 H   0  0  0  0  0  0  0  0  0  0  0  0
    6.8071    0.4429    0.0943 H   0  0  0  0  0  0  0  0  0  0  0  0
    5.2519    2.3479   -0.2167 H   0  0  0  0  0  0  0  0  0  0  0  0
    2.8386    1.9871   -0.2515 H   0  0  0  0  0  0  0  0  0  0  0  0
  1  2  1  0
  1 18  1  0
  1 19  1  0
  1 20  1  0
  2  3  2  0
  2  4  1  0
  3  9  1  0
  3 21  1  0
  4  5  1  0
  4  6  2  0
  5 22  1  0
  6  7  1  0
  6  8  1  0
  7 23  1  0
  7 24  1  0
  7 25  1  0
  8  9  2  0
  8 26  1  0
  9 10  1  0
 10 11  2  0
 10 27  1  0
 11 12  1  0
 11 28  1  0
 12 13  2  0
 12 17  1  0
 13 14  1  0
 13 29  1  0
 14 15  2  0
 14 30  1  0
 15 16  1  0
 15 31  1  0
 16 17  2  0
 16 32  1  0
 17 33  1  0
M  END
