
     RDKit          3D

 20 20  0  0  0  0  0  0  0  0999 V2000
    2.8077   -0.1364    0.0765 O   0  0  0  0  0  0  0  0  0  0  0  0
   -0.6825    1.2883   -0.1842 C   0  0  0  0  0  0  0  0  0  0  0  0
    0.7948    1.2370    0.1924 C   0  0  0  0  0  0  0  0  0  0  0  0
   -1.4171    0.0615    0.3315 C   0  0  1  0  0  0  0  0  0  0  0  0
   -2.7692    0.1600   -0.0687 O   0  0  0  0  0  0  0  0  0  0  0  0
   -0.7564   -1.2135   -0.1829 C   0  0  0  0  0  0  0  0  0  0  0  0
    0.7209   -1.2646    0.1936 C   0  0  0  0  0  0  0  0  0  0  0  0
    1.4552   -0.0377   -0.3225 C   0  0  2  0  0  0  0  0  0  0  0  0
    3.2771    0.6324   -0.2617 H   0  0  0  0  0  0  0  0  0  0  0  0
   -1.1382    2.1959    0.2190 H   0  0  0  0  0  0  0  0  0  0  0  0
   -0.7862    1.3392   -1.2741 H   0  0  0  0  0  0  0  0  0  0  0  0
    1.3090    2.1142   -0.2118 H   0  0  0  0  0  0  0  0  0  0  0  0
    0.9048    1.2812    1.2818 H   0  0  0  0  0  0  0  0  0  0  0  0
   -1.3415    0.0594    1.4308 H   0  0  0  0  0  0  0  0  0  0  0  0
   -3.2393   -0.6081    0.2704 H   0  0  0  0  0  0  0  0  0  0  0  0
   -1.2706   -2.0904    0.2221 H   0  0  0  0  0  0  0  0  0  0  0  0
   -0.8664   -1.2584   -1.2721 H   0  0  0  0  0  0  0  0  0  0  0  0
    0.8250   -1.3149    1.2835 H   0  0  0  0  0  0  0  0  0  0  0  0
    1.1769   -2.1721   -0.2096 H   0  0  0  0  0  0  0  0  0  0  0  0
    1.3789   -0.0357   -1.4218 H   0  0  0  0  0  0  0  0  0  0  0  0
  1  8  1  0
  7  8  1  0
  7  6  1  0
  8  3  1  0
  6  4  1  0
  3  2  1  0
  4  2  1  0
  4  5  1  0
  1  9  1  0
  2 10  1  0
  2 11  1  0
  3 12  1  0
  3 13  1  0
  4 14  1  1
  5 15  1  0
  6 16  1  0
  6 17  1  0
  7 18  1  0
  7 19  1  0
  8 20  1  6
M  END
