
     RDKit          3D

 60 62  0  0  0  0  0  0  0  0999 V2000
    3.3142    1.9325   -0.3609 C   0  0  0  0  0  0  0  0  0  0  0  0
   -3.4955   -0.1483   -1.9375 C   0  0  0  0  0  0  0  0  0  0  0  0
   -3.5449   -1.4835   -1.9469 C   0  0  0  0  0  0  0  0  0  0  0  0
   -1.5773   -4.1285    0.6557 C   0  0  0  0  0  0  0  0  0  0  0  0
   -2.5987   -3.7140   -1.4586 C   0  0  0  0  0  0  0  0  0  0  0  0
   -2.8625   -2.4100   -1.0356 C   0  0  0  0  0  0  0  0  0  0  0  0
   -1.9053   -2.8223    0.9967 C   0  0  0  0  0  0  0  0  0  0  0  0
    5.9407    0.1972    1.3266 C   0  0  0  0  0  0  0  0  0  0  0  0
   -2.5297   -1.9850    0.1839 N   0  0  0  0  0  0  0  0  0  0  0  0
   -1.2665    0.5278   -1.1045 C   0  0  0  0  0  0  0  0  0  0  0  0
   -0.4127    1.3474   -0.3739 C   0  0  0  0  0  0  0  0  0  0  0  0
    3.7788    0.6248   -0.3949 C   0  0  0  0  0  0  0  0  0  0  0  0
    1.5379   -0.2023   -0.4033 C   0  0  0  0  0  0  0  0  0  0  0  0
    6.1938    1.4940   -0.9645 O   0  0  0  0  0  0  0  0  0  0  0  0
    5.5216    0.3204   -0.4086 S   0  0  1  0  0  0  0  0  0  0  0  0
    5.7609   -0.9800   -1.0329 O   0  0  0  0  0  0  0  0  0  0  0  0
    7.4290   -0.0651    1.5094 C   0  0  0  0  0  0  0  0  0  0  0  0
    7.6491   -0.1545    2.8956 O   0  0  0  0  0  0  0  0  0  0  0  0
    1.9497    2.1635   -0.3524 C   0  0  0  0  0  0  0  0  0  0  0  0
    1.0408    1.1031   -0.3775 C   0  0  0  0  0  0  0  0  0  0  0  0
    2.8991   -0.4489   -0.4167 C   0  0  0  0  0  0  0  0  0  0  0  0
   -0.9686    2.3952    0.3606 C   0  0  0  0  0  0  0  0  0  0  0  0
   -2.3389    2.5908    0.3665 C   0  0  0  0  0  0  0  0  0  0  0  0
   -3.1972    1.7635   -0.3538 C   0  0  0  0  0  0  0  0  0  0  0  0
   -4.6845    1.9371   -0.2485 C   0  0  0  0  0  0  0  0  0  0  0  0
   -5.2885    0.9736    0.7773 C   0  0  0  0  0  0  0  0  0  0  0  0
   -6.8079    1.0505    0.8373 C   0  0  0  0  0  0  0  0  0  0  0  0
   -7.4098    0.1077    1.8719 C   0  0  0  0  0  0  0  0  0  0  0  0
   -8.9295    0.1796    1.9279 C   0  0  0  0  0  0  0  0  0  0  0  0
   -2.6449    0.7139   -1.0983 C   0  0  0  0  0  0  0  0  0  0  0  0
   -1.9412   -4.5820   -0.6025 C   0  0  0  0  0  0  0  0  0  0  0  0
    4.0011    2.7678   -0.3525 H   0  0  0  0  0  0  0  0  0  0  0  0
   -4.1241    0.3667   -2.6586 H   0  0  0  0  0  0  0  0  0  0  0  0
   -4.1553   -1.9539   -2.7106 H   0  0  0  0  0  0  0  0  0  0  0  0
   -2.9020   -4.0352   -2.4467 H   0  0  0  0  0  0  0  0  0  0  0  0
   -1.6534   -2.4395    1.9802 H   0  0  0  0  0  0  0  0  0  0  0  0
    5.6413    1.1357    1.7961 H   0  0  0  0  0  0  0  0  0  0  0  0
    5.3391   -0.6132    1.7426 H   0  0  0  0  0  0  0  0  0  0  0  0
   -0.8536   -0.2654   -1.7159 H   0  0  0  0  0  0  0  0  0  0  0  0
    0.8542   -1.0412   -0.3939 H   0  0  0  0  0  0  0  0  0  0  0  0
    7.7047   -0.9905    0.9922 H   0  0  0  0  0  0  0  0  0  0  0  0
    8.0040    0.7505    1.0581 H   0  0  0  0  0  0  0  0  0  0  0  0
    8.5880   -0.3084    3.0377 H   0  0  0  0  0  0  0  0  0  0  0  0
    1.5912    3.1849   -0.3492 H   0  0  0  0  0  0  0  0  0  0  0  0
    3.2608   -1.4682   -0.4396 H   0  0  0  0  0  0  0  0  0  0  0  0
   -0.3334    3.0473    0.9471 H   0  0  0  0  0  0  0  0  0  0  0  0
   -2.7559    3.4015    0.9525 H   0  0  0  0  0  0  0  0  0  0  0  0
   -4.9198    2.9656    0.0359 H   0  0  0  0  0  0  0  0  0  0  0  0
   -5.1591    1.7674   -1.2191 H   0  0  0  0  0  0  0  0  0  0  0  0
   -4.9776   -0.0479    0.5373 H   0  0  0  0  0  0  0  0  0  0  0  0
   -4.8699    1.1980    1.7638 H   0  0  0  0  0  0  0  0  0  0  0  0
   -7.1149    2.0782    1.0610 H   0  0  0  0  0  0  0  0  0  0  0  0
   -7.2223    0.8176   -0.1499 H   0  0  0  0  0  0  0  0  0  0  0  0
   -7.0989   -0.9176    1.6494 H   0  0  0  0  0  0  0  0  0  0  0  0
   -6.9965    0.3430    2.8576 H   0  0  0  0  0  0  0  0  0  0  0  0
   -9.3347   -0.5022    2.6766 H   0  0  0  0  0  0  0  0  0  0  0  0
   -9.2680    1.1863    2.1810 H   0  0  0  0  0  0  0  0  0  0  0  0
   -9.3744   -0.0837    0.9663 H   0  0  0  0  0  0  0  0  0  0  0  0
   -1.7188   -5.5948   -0.9117 H   0  0  0  0  0  0  0  0  0  0  0  0
   -1.0631   -4.7662    1.3614 H   0  0  0  0  0  0  0  0  0  0  0  0
 29 28  1  0
 27 28  1  0
 27 26  1  0
 23 22  2  0
 23 24  1  0
 26 25  1  0
 22 11  1  0
 18 17  1  0
 25 24  1  0
 19  1  2  0
 19 20  1  0
 24 30  2  0
 17  8  1  0
  1 12  1  0
 11 20  1  0
 11 10  2  0
 20 13  2  0
 30 10  1  0
 30  2  1  0
 12 15  1  0
 12 21  2  0
 15  8  1  1
 14 15  2  0
 13 21  1  0
  9  7  1  0
  9  6  2  0
 15 16  2  0
  7  4  2  0
  2  3  2  0
  3  6  1  0
  6  5  1  0
  4 31  1  0
  5 31  2  0
  1 32  1  0
  2 33  1  0
  3 34  1  0
  4 60  1  0
  5 35  1  0
  7 36  1  0
  8 37  1  0
  8 38  1  0
 10 39  1  0
 13 40  1  0
 17 41  1  0
 17 42  1  0
 18 43  1  0
 19 44  1  0
 21 45  1  0
 22 46  1  0
 23 47  1  0
 25 48  1  0
 25 49  1  0
 26 50  1  0
 26 51  1  0
 27 52  1  0
 27 53  1  0
 28 54  1  0
 28 55  1  0
 29 56  1  0
 29 57  1  0
 29 58  1  0
 31 59  1  0
M  END
