
     RDKit          3D

 75 78  0  0  0  0  0  0  0  0999 V2000
   -3.4172    1.0600    0.2264 C   0  0  0  0  0  0  0  0  0  0  0  0
   -2.6589    1.6856    0.9530 O   0  0  0  0  0  0  0  0  0  0  0  0
   -4.7296    1.6236   -0.2680 C   0  0  0  0  0  0  0  0  0  0  0  0
   -5.4473    2.4496    0.7994 C   0  0  0  0  0  0  0  0  0  0  0  0
   -6.7445    3.0035    0.2790 C   0  0  0  0  0  0  0  0  0  0  0  0
   -7.9435    2.3230    0.4763 C   0  0  0  0  0  0  0  0  0  0  0  0
   -9.1367    2.8188   -0.0338 C   0  0  0  0  0  0  0  0  0  0  0  0
   -9.1470    4.0063   -0.7534 C   0  0  0  0  0  0  0  0  0  0  0  0
   -7.9569    4.6934   -0.9580 C   0  0  0  0  0  0  0  0  0  0  0  0
   -6.7675    4.1940   -0.4449 C   0  0  0  0  0  0  0  0  0  0  0  0
   -3.1318   -0.1866   -0.1908 N   0  0  0  0  0  0  0  0  0  0  0  0
   -1.8804   -0.8117    0.1279 C   0  0  1  0  0  0  0  0  0  0  0  0
   -1.8935   -2.2710   -0.3146 C   0  0  0  0  0  0  0  0  0  0  0  0
   -2.8459   -3.1160    0.4967 C   0  0  0  0  0  0  0  0  0  0  0  0
   -3.3941   -2.7276    1.4970 O   0  0  0  0  0  0  0  0  0  0  0  0
   -3.0527   -4.4117    0.0339 N   0  0  0  0  0  0  0  0  0  0  0  0
   -3.9006   -5.3216    0.6397 C   0  0  0  0  0  0  0  0  0  0  0  0
   -3.8438   -6.4811   -0.0644 C   0  0  0  0  0  0  0  0  0  0  0  0
   -2.4576   -5.0171   -1.0601 C   0  0  0  0  0  0  0  0  0  0  0  0
   -2.9248   -6.2889   -1.1432 C   0  0  0  0  0  0  0  0  0  0  0  0
   -0.7174   -0.1065   -0.5809 C   0  0  0  0  0  0  0  0  0  0  0  0
   -0.8670    0.4839   -1.6357 O   0  0  0  0  0  0  0  0  0  0  0  0
    0.4618   -0.2592    0.0373 N   0  0  0  0  0  0  0  0  0  0  0  0
    1.7125    0.1746   -0.5247 C   0  0  2  0  0  0  0  0  0  0  0  0
    2.7981   -0.8308   -0.1408 C   0  0  0  0  0  0  0  0  0  0  0  0
    2.6428   -1.6283    0.7707 O   0  0  0  0  0  0  0  0  0  0  0  0
    2.1102    1.5695   -0.0538 C   0  0  0  0  0  0  0  0  0  0  0  0
    2.7259    2.7666    1.8521 C   0  0  0  0  0  0  0  0  0  0  0  0
    8.6743    0.8493   -1.2039 C   0  0  0  0  0  0  0  0  0  0  0  0
    8.3418   -0.1463   -2.0767 C   0  0  0  0  0  0  0  0  0  0  0  0
    7.8589    1.1196   -0.0787 C   0  0  0  0  0  0  0  0  0  0  0  0
    5.8964    0.6348    1.2803 C   0  0  0  0  0  0  0  0  0  0  0  0
    6.6856    0.3480    0.1399 C   0  0  0  0  0  0  0  0  0  0  0  0
    6.2543    1.6296    2.1506 C   0  0  0  0  0  0  0  0  0  0  0  0
    3.9215   -0.7269   -0.8609 N   0  0  0  0  0  0  0  0  0  0  0  0
    5.1146   -1.5146   -0.6198 C   0  0  0  0  0  0  0  0  0  0  0  0
    6.3559   -0.6820   -0.7897 C   0  0  0  0  0  0  0  0  0  0  0  0
    7.1755   -0.9097   -1.8641 C   0  0  0  0  0  0  0  0  0  0  0  0
    7.4155    2.3954    1.9283 C   0  0  0  0  0  0  0  0  0  0  0  0
    8.1999    2.1422    0.8368 C   0  0  0  0  0  0  0  0  0  0  0  0
   -4.5129    2.2529   -1.1370 H   0  0  0  0  0  0  0  0  0  0  0  0
   -5.3803    0.8220   -0.6249 H   0  0  0  0  0  0  0  0  0  0  0  0
   -5.6378    1.8244    1.6745 H   0  0  0  0  0  0  0  0  0  0  0  0
   -4.7999    3.2650    1.1254 H   0  0  0  0  0  0  0  0  0  0  0  0
   -7.9461    1.3975    1.0410 H   0  0  0  0  0  0  0  0  0  0  0  0
  -10.0596    2.2783    0.1341 H   0  0  0  0  0  0  0  0  0  0  0  0
  -10.0764    4.3960   -1.1480 H   0  0  0  0  0  0  0  0  0  0  0  0
   -7.9553    5.6221   -1.5147 H   0  0  0  0  0  0  0  0  0  0  0  0
   -5.8433    4.7381   -0.6041 H   0  0  0  0  0  0  0  0  0  0  0  0
   -3.7455   -0.6332   -0.8535 H   0  0  0  0  0  0  0  0  0  0  0  0
   -1.7168   -0.7659    1.2080 H   0  0  0  0  0  0  0  0  0  0  0  0
   -2.1330   -2.3367   -1.3792 H   0  0  0  0  0  0  0  0  0  0  0  0
   -0.8917   -2.6952   -0.2021 H   0  0  0  0  0  0  0  0  0  0  0  0
   -4.4683   -5.0591    1.5155 H   0  0  0  0  0  0  0  0  0  0  0  0
   -4.3981   -7.3791    0.1572 H   0  0  0  0  0  0  0  0  0  0  0  0
   -1.7473   -4.5004   -1.6822 H   0  0  0  0  0  0  0  0  0  0  0  0
   -2.6446   -7.0136   -1.8909 H   0  0  0  0  0  0  0  0  0  0  0  0
    0.5000   -0.7396    0.9238 H   0  0  0  0  0  0  0  0  0  0  0  0
    1.6162    0.2076   -1.6127 H   0  0  0  0  0  0  0  0  0  0  0  0
    1.3026    2.2730   -0.2982 H   0  0  0  0  0  0  0  0  0  0  0  0
    3.0009    1.9027   -0.6054 H   0  0  0  0  0  0  0  0  0  0  0  0
    3.6497    3.1412    1.3974 H   0  0  0  0  0  0  0  0  0  0  0  0
    1.9434    3.5207    1.7090 H   0  0  0  0  0  0  0  0  0  0  0  0
    2.8939    2.6409    2.9208 H   0  0  0  0  0  0  0  0  0  0  0  0
    8.9669   -0.3540   -2.9351 H   0  0  0  0  0  0  0  0  0  0  0  0
    5.0015    0.0634    1.4842 H   0  0  0  0  0  0  0  0  0  0  0  0
    5.6400    1.8295    3.0188 H   0  0  0  0  0  0  0  0  0  0  0  0
    3.9452   -0.0924   -1.6440 H   0  0  0  0  0  0  0  0  0  0  0  0
    5.0506   -1.9313    0.3853 H   0  0  0  0  0  0  0  0  0  0  0  0
    5.1501   -2.3615   -1.3097 H   0  0  0  0  0  0  0  0  0  0  0  0
    6.9246   -1.6927   -2.5699 H   0  0  0  0  0  0  0  0  0  0  0  0
    7.6851    3.1783    2.6251 H   0  0  0  0  0  0  0  0  0  0  0  0
    9.0982    2.7219    0.6613 H   0  0  0  0  0  0  0  0  0  0  0  0
    9.5677    1.4426   -1.3576 H   0  0  0  0  0  0  0  0  0  0  0  0
    2.3512    1.5189    1.3232 O   0  0  0  0  0  0  0  0  0  0  0  0
 19 20  2  0
 19 16  1  0
 15 14  2  0
 20 18  1  0
 14 16  1  0
 14 13  1  0
 16 17  1  0
 18 17  2  0
 26 25  2  0
 13 12  1  0
 12 11  1  0
 12 21  1  0
 34 32  2  0
 34 39  1  0
 23 21  1  0
 23 24  1  0
 32 33  1  0
 25 24  1  0
 25 35  1  0
 39 40  2  0
 11  1  1  0
 27 24  1  0
 27 75  1  0
  2  1  2  0
 21 22  2  0
  1  3  1  0
 36 35  1  0
 36 37  1  0
 33 37  2  0
 33 31  1  0
 40 31  1  0
 75 28  1  0
 37 38  1  0
  3  4  1  0
 31 29  2  0
 10  9  2  0
 10  5  1  0
 38 30  2  0
  4  5  1  0
 29 30  1  0
  9  8  1  0
  5  6  2  0
  8  7  2  0
  6  7  1  0
 18 55  1  0
 34 67  1  0
 27 60  1  0
 27 61  1  0
 28 62  1  0
 28 63  1  0
 28 64  1  0
 40 73  1  0
 29 74  1  0
 30 65  1  0
 32 66  1  0
 19 56  1  0
 39 72  1  0
 20 57  1  0
 17 54  1  0
 23 58  1  0
 24 59  1  6
 35 68  1  0
 36 69  1  0
 36 70  1  0
 38 71  1  0
 12 51  1  1
 13 52  1  0
 13 53  1  0
 11 50  1  0
  3 41  1  0
  3 42  1  0
  4 43  1  0
  4 44  1  0
  6 45  1  0
  7 46  1  0
  8 47  1  0
  9 48  1  0
 10 49  1  0
M  END
