
     RDKit          3D

 26 27  0  0  0  0  0  0  0  0999 V2000
   -4.2954   -1.0335   -0.8855 O   0  0  0  0  0  0  0  0  0  0  0  0
   -4.3304    1.0960   -0.7742 O   0  0  0  0  0  0  0  0  0  0  0  0
    3.8251    1.1388   -0.9562 C   0  0  0  0  0  0  0  0  0  0  0  0
    3.8795   -1.1280   -0.9222 C   0  0  0  0  0  0  0  0  0  0  0  0
    2.9128    1.1861    0.0863 C   0  0  0  0  0  0  0  0  0  0  0  0
    2.9683   -1.1874    0.1215 C   0  0  0  0  0  0  0  0  0  0  0  0
   -0.6074    1.2015    0.9068 C   0  0  0  0  0  0  0  0  0  0  0  0
   -0.5868   -1.1950    0.8219 C   0  0  0  0  0  0  0  0  0  0  0  0
   -1.8653    1.2225    0.3316 C   0  0  0  0  0  0  0  0  0  0  0  0
   -1.8439   -1.1968    0.2448 C   0  0  0  0  0  0  0  0  0  0  0  0
    4.3068    0.0082   -1.4607 N   0  0  0  0  0  0  0  0  0  0  0  0
    2.4630   -0.0040    0.6465 C   0  0  0  0  0  0  0  0  0  0  0  0
    0.0470   -0.0015    1.1597 C   0  0  0  0  0  0  0  0  0  0  0  0
   -2.4708    0.0177    0.0047 C   0  0  0  0  0  0  0  0  0  0  0  0
   -3.7943    0.0274   -0.5950 N   0  0  0  0  0  0  0  0  0  0  0  0
    4.2825   -2.0445   -1.3393 H   0  0  0  0  0  0  0  0  0  0  0  0
    2.5648    2.1439    0.4525 H   0  0  0  0  0  0  0  0  0  0  0  0
    2.6643   -2.1486    0.5167 H   0  0  0  0  0  0  0  0  0  0  0  0
   -0.1344    2.1394    1.1675 H   0  0  0  0  0  0  0  0  0  0  0  0
   -0.0974   -2.1406    1.0165 H   0  0  0  0  0  0  0  0  0  0  0  0
   -2.3573    2.1663    0.1477 H   0  0  0  0  0  0  0  0  0  0  0  0
   -2.3186   -2.1342   -0.0049 H   0  0  0  0  0  0  0  0  0  0  0  0
    1.4341   -0.0114    1.7467 C   0  0  0  0  0  0  0  0  0  0  0  0
    4.1826    2.0604   -1.4023 H   0  0  0  0  0  0  0  0  0  0  0  0
    1.5648   -0.8964    2.3713 H   0  0  0  0  0  0  0  0  0  0  0  0
    1.5703    0.8605    2.3883 H   0  0  0  0  0  0  0  0  0  0  0  0
  1 15  2  0
  3 11  2  0
  4 11  1  0
  5  3  1  0
  6  4  2  0
  8 13  2  0
  9  7  2  0
 10  8  1  0
 10 14  2  0
 23 12  1  0
 12  5  2  0
 12  6  1  0
 13  7  1  0
 13 23  1  0
 14  9  1  0
 15  2  1  0
 15 14  1  0
  3 24  1  0
  4 16  1  0
  5 17  1  0
  6 18  1  0
  7 19  1  0
  8 20  1  0
  9 21  1  0
 10 22  1  0
 23 25  1  0
 23 26  1  0
M  CHG  2   2  -1  15   1
M  END
