
     RDKit          3D

 29 29  0  0  0  0  0  0  0  0999 V2000
    0.0771   -1.4604    0.5622 O   0  0  0  0  0  0  0  0  0  0  0  0
    0.2584   -0.2854    0.2626 C   0  0  0  0  0  0  0  0  0  0  0  0
    1.6221    0.2286   -0.1649 C   0  0  1  0  0  0  0  0  0  0  0  0
    2.7137   -0.6000    0.5037 C   0  0  0  0  0  0  0  0  0  0  0  0
    4.3479    0.1011    0.0851 S   0  0  0  0  0  0  0  0  0  0  0  0
    1.6905    0.1789   -1.6956 C   0  0  0  0  0  0  0  0  0  0  0  0
    2.5965   -0.5723    1.5866 H   0  0  0  0  0  0  0  0  0  0  0  0
    2.6694   -1.6383    0.1795 H   0  0  0  0  0  0  0  0  0  0  0  0
    0.8871    0.7594   -2.1494 H   0  0  0  0  0  0  0  0  0  0  0  0
    2.6323    0.5870   -2.0614 H   0  0  0  0  0  0  0  0  0  0  0  0
    1.6060   -0.8488   -2.0508 H   0  0  0  0  0  0  0  0  0  0  0  0
    5.0596   -0.6044    0.9698 H   0  0  0  0  0  0  0  0  0  0  0  0
    1.7447    1.2662    0.1555 H   0  0  0  0  0  0  0  0  0  0  0  0
   -0.7664    0.5840    0.2464 N   0  0  0  0  0  0  0  0  0  0  0  0
   -2.1070    0.0998    0.5089 C   0  0  2  0  0  0  0  0  0  0  0  0
   -2.4967   -0.9844   -0.4737 C   0  0  0  0  0  0  0  0  0  0  0  0
   -2.1085   -1.0403   -1.6112 O   0  0  0  0  0  0  0  0  0  0  0  0
   -3.3828   -1.8190    0.0511 O   0  0  0  0  0  0  0  0  0  0  0  0
   -0.7301    2.0181   -0.0162 C   0  0  0  0  0  0  0  0  0  0  0  0
   -2.0394    2.5001    0.5903 C   0  0  0  0  0  0  0  0  0  0  0  0
   -2.9942    1.3435    0.3181 C   0  0  0  0  0  0  0  0  0  0  0  0
   -2.1907   -0.2788    1.5312 H   0  0  0  0  0  0  0  0  0  0  0  0
    0.1357    2.4874    0.4477 H   0  0  0  0  0  0  0  0  0  0  0  0
   -0.6925    2.2198   -1.0906 H   0  0  0  0  0  0  0  0  0  0  0  0
   -3.3629    1.4013   -0.7082 H   0  0  0  0  0  0  0  0  0  0  0  0
   -3.8549    1.3273    0.9838 H   0  0  0  0  0  0  0  0  0  0  0  0
   -3.6716   -2.4590   -0.6171 H   0  0  0  0  0  0  0  0  0  0  0  0
   -1.9200    2.6511    1.6649 H   0  0  0  0  0  0  0  0  0  0  0  0
   -2.3766    3.4381    0.1526 H   0  0  0  0  0  0  0  0  0  0  0  0
  1  2  2  0
  2  3  1  0
  2 14  1  0
  3  4  1  0
  3  6  1  0
  4  5  1  0
 14 15  1  0
 14 19  1  0
 15 16  1  0
 15 21  1  0
 16 17  2  0
 16 18  1  0
 19 20  1  0
 20 21  1  0
  3 13  1  1
  4  7  1  0
  4  8  1  0
  6  9  1  0
  6 10  1  0
  6 11  1  0
  5 12  1  0
 15 22  1  1
 19 23  1  0
 19 24  1  0
 21 25  1  0
 21 26  1  0
 18 27  1  0
 20 28  1  0
 20 29  1  0
M  END
