
     RDKit          3D

 31 32  0  0  0  0  0  0  0  0999 V2000
   -0.3208    1.0108   -0.3853 C   0  0  0  0  0  0  0  0  0  0  0  0
   -5.3581   -0.0151   -0.2479 C   0  0  0  0  0  0  0  0  0  0  0  0
   -4.6749    1.1843   -0.0957 C   0  0  0  0  0  0  0  0  0  0  0  0
   -3.2946    1.1893    0.0437 C   0  0  0  0  0  0  0  0  0  0  0  0
    3.1963    0.0281    0.6905 C   0  0  1  0  0  0  0  0  0  0  0  0
    3.9205   -0.3596   -0.5830 C   0  0  0  0  0  0  0  0  0  0  0  0
    3.7263    1.3749    1.2056 C   0  0  0  0  0  0  0  0  0  0  0  0
    1.0558    1.0218   -0.2351 C   0  0  0  0  0  0  0  0  0  0  0  0
    1.7035    0.0263    0.4924 C   0  0  0  0  0  0  0  0  0  0  0  0
    0.9291   -0.9818    1.0553 C   0  0  0  0  0  0  0  0  0  0  0  0
   -0.4497   -0.9973    0.9051 C   0  0  0  0  0  0  0  0  0  0  0  0
   -1.1009    0.0015    0.1831 C   0  0  0  0  0  0  0  0  0  0  0  0
   -2.5699   -0.0042    0.0312 C   0  0  0  0  0  0  0  0  0  0  0  0
   -3.2686   -1.2032   -0.1250 C   0  0  0  0  0  0  0  0  0  0  0  0
   -4.6488   -1.2091   -0.2626 C   0  0  0  0  0  0  0  0  0  0  0  0
    5.1938   -0.6543   -0.3459 O   0  0  0  0  0  0  0  0  0  0  0  0
    3.4309   -0.3885   -1.6829 O   0  0  0  0  0  0  0  0  0  0  0  0
   -0.7921    1.7907   -0.9704 H   0  0  0  0  0  0  0  0  0  0  0  0
   -5.2188    2.1199   -0.0771 H   0  0  0  0  0  0  0  0  0  0  0  0
   -2.7787    2.1310    0.1852 H   0  0  0  0  0  0  0  0  0  0  0  0
    3.4402   -0.7302    1.4412 H   0  0  0  0  0  0  0  0  0  0  0  0
    4.7809    1.3105    1.4681 H   0  0  0  0  0  0  0  0  0  0  0  0
    3.6112    2.1671    0.4661 H   0  0  0  0  0  0  0  0  0  0  0  0
    3.1752    1.6654    2.0988 H   0  0  0  0  0  0  0  0  0  0  0  0
    1.6227    1.8208   -0.6960 H   0  0  0  0  0  0  0  0  0  0  0  0
    1.4082   -1.7670    1.6283 H   0  0  0  0  0  0  0  0  0  0  0  0
   -1.0221   -1.7867    1.3758 H   0  0  0  0  0  0  0  0  0  0  0  0
   -2.7281   -2.1407   -0.1630 H   0  0  0  0  0  0  0  0  0  0  0  0
   -5.1705   -2.1488   -0.3905 H   0  0  0  0  0  0  0  0  0  0  0  0
    5.6440   -0.8728   -1.1757 H   0  0  0  0  0  0  0  0  0  0  0  0
   -6.4350   -0.0193   -0.3537 H   0  0  0  0  0  0  0  0  0  0  0  0
  1  8  2  0
  1 12  1  0
  1 18  1  0
  2  3  2  0
  2 15  1  0
  2 31  1  0
  3  4  1  0
  3 19  1  0
  4 13  2  0
  4 20  1  0
  5  6  1  0
  5  7  1  0
  5  9  1  0
  5 21  1  1
  6 16  1  0
  6 17  2  0
  7 22  1  0
  7 23  1  0
  7 24  1  0
  8  9  1  0
  8 25  1  0
  9 10  2  0
 10 11  1  0
 10 26  1  0
 11 12  2  0
 11 27  1  0
 12 13  1  0
 13 14  1  0
 14 15  2  0
 14 28  1  0
 15 29  1  0
 16 30  1  0
M  END
