
     RDKit          3D

 20 20  0  0  0  0  0  0  0  0999 V2000
    0.1421    0.0056    1.4240 C   0  0  0  0  0  0  0  0  0  0  0  0
    1.0485   -0.0759    2.4146 O   0  0  0  0  0  0  0  0  0  0  0  0
    0.5856   -0.1421    3.7494 C   0  0  0  0  0  0  0  0  0  0  0  0
    0.6544    0.0605    0.1281 C   0  0  0  0  0  0  0  0  0  0  0  0
   -0.1960    0.1236   -0.9652 C   0  0  0  0  0  0  0  0  0  0  0  0
    0.4260    0.1866   -2.3269 C   0  0  0  0  0  0  0  0  0  0  0  0
    1.5667    0.6004   -2.4818 O   0  0  0  0  0  0  0  0  0  0  0  0
   -0.3406   -0.2311   -3.3451 N   0  0  0  0  0  0  0  0  0  0  0  0
   -1.5776    0.1601   -0.7694 C   0  0  0  0  0  0  0  0  0  0  0  0
   -2.0806    0.1232    0.5194 C   0  0  0  0  0  0  0  0  0  0  0  0
   -1.2369    0.0418    1.6206 C   0  0  0  0  0  0  0  0  0  0  0  0
    1.4681   -0.2289    4.3782 H   0  0  0  0  0  0  0  0  0  0  0  0
    0.0355    0.7582    4.0357 H   0  0  0  0  0  0  0  0  0  0  0  0
   -0.0528   -1.0134    3.9165 H   0  0  0  0  0  0  0  0  0  0  0  0
    1.7274    0.0427   -0.0153 H   0  0  0  0  0  0  0  0  0  0  0  0
    0.0335   -0.2342   -4.2801 H   0  0  0  0  0  0  0  0  0  0  0  0
   -1.2140   -0.7075   -3.2038 H   0  0  0  0  0  0  0  0  0  0  0  0
   -2.2635    0.2428   -1.6017 H   0  0  0  0  0  0  0  0  0  0  0  0
   -3.1501    0.1633    0.6787 H   0  0  0  0  0  0  0  0  0  0  0  0
   -1.6682    0.0120    2.6120 H   0  0  0  0  0  0  0  0  0  0  0  0
  1  2  1  0
  1  4  2  0
  1 11  1  0
  2  3  1  0
  3 12  1  0
  3 13  1  0
  3 14  1  0
  4  5  1  0
  4 15  1  0
  5  6  1  0
  5  9  2  0
  6  7  2  0
  6  8  1  0
  8 16  1  0
  8 17  1  0
  9 10  1  0
  9 18  1  0
 10 11  2  0
 10 19  1  0
 11 20  1  0
M  END
