
     RDKit          3D

 17 18  0  0  0  0  0  0  0  0999 V2000
    2.7547   -0.4585    0.0196 O   0  0  0  0  0  0  0  0  0  0  0  0
    1.7021   -1.3028   -0.0185 C   0  0  0  0  0  0  0  0  0  0  0  0
    0.4636   -0.8017   -0.0271 C   0  0  0  0  0  0  0  0  0  0  0  0
    0.1981    0.6075    0.0026 C   0  0  0  0  0  0  0  0  0  0  0  0
    1.3472    1.4506    0.0415 C   0  0  0  0  0  0  0  0  0  0  0  0
    2.5603    0.8666    0.0477 C   0  0  0  0  0  0  0  0  0  0  0  0
   -1.1526    0.7721   -0.0155 C   0  0  0  0  0  0  0  0  0  0  0  0
   -1.7277   -0.5533   -0.0569 C   0  0  0  0  0  0  0  0  0  0  0  0
   -2.8713   -0.9299   -0.0843 O   0  0  0  0  0  0  0  0  0  0  0  0
   -0.6949   -1.4859   -0.0632 O   0  0  0  0  0  0  0  0  0  0  0  0
   -1.9722    2.0120    0.0021 C   0  0  0  0  0  0  0  0  0  0  0  0
    1.9798   -2.3464   -0.0391 H   0  0  0  0  0  0  0  0  0  0  0  0
    1.2789    2.5282    0.0656 H   0  0  0  0  0  0  0  0  0  0  0  0
    3.4932    1.4107    0.0764 H   0  0  0  0  0  0  0  0  0  0  0  0
   -2.6153    2.0792   -0.8771 H   0  0  0  0  0  0  0  0  0  0  0  0
   -2.6202    2.0512    0.8795 H   0  0  0  0  0  0  0  0  0  0  0  0
   -1.3413    2.8992    0.0183 H   0  0  0  0  0  0  0  0  0  0  0  0
  6  1  1  0
  6  5  2  0
  1  2  1  0
  5  4  1  0
  2  3  2  0
  4  3  1  0
  4  7  2  0
  3 10  1  0
  7 11  1  0
  7  8  1  0
 10  8  1  0
  8  9  2  0
  2 12  1  0
  5 13  1  0
  6 14  1  0
 11 15  1  0
 11 16  1  0
 11 17  1  0
M  END
