
     RDKit          3D

 96 99  0  0  0  0  0  0  0  0999 V2000
   -3.2315    1.7777    2.2658 C   0  0  0  0  0  0  0  0  0  0  0  0
   -4.0267    1.5817    0.9788 C   0  0  0  0  0  0  0  0  0  0  0  0
   -5.5165    1.5164    1.2731 C   0  0  0  0  0  0  0  0  0  0  0  0
   -6.2562    1.3060    0.0438 N   0  0  0  0  0  0  0  0  0  0  0  0
   -7.5340    0.9347    0.0181 C   0  0  0  0  0  0  0  0  0  0  0  0
   -8.1616    0.7308    1.0717 O   0  0  0  0  0  0  0  0  0  0  0  0
   -8.2018    0.7644   -1.2967 C   0  0  0  0  0  0  0  0  0  0  0  0
   -7.5445    0.9217   -2.5248 C   0  0  0  0  0  0  0  0  0  0  0  0
   -8.2278    0.7605   -3.7100 C   0  0  0  0  0  0  0  0  0  0  0  0
   -9.5832    0.4337   -3.7017 C   0  0  0  0  0  0  0  0  0  0  0  0
  -10.2515    0.2667   -2.5060 C   0  0  0  0  0  0  0  0  0  0  0  0
  -11.5608   -0.0534   -2.5124 O   0  0  0  0  0  0  0  0  0  0  0  0
   -9.5620    0.4286   -1.2907 C   0  0  0  0  0  0  0  0  0  0  0  0
  -10.2739    0.2415   -0.1751 O   0  0  0  0  0  0  0  0  0  0  0  0
   -3.4217    0.9470    2.9481 H   0  0  0  0  0  0  0  0  0  0  0  0
   -3.8228    2.4043    0.2893 H   0  0  0  0  0  0  0  0  0  0  0  0
   -5.7260    0.6972    1.9630 H   0  0  0  0  0  0  0  0  0  0  0  0
   -5.7902    1.5407   -0.8167 H   0  0  0  0  0  0  0  0  0  0  0  0
   -9.6377    0.3723    0.5799 H   0  0  0  0  0  0  0  0  0  0  0  0
   -1.7938    1.8477    2.0603 N   0  0  0  0  0  0  0  0  0  0  0  0
   -1.2549    3.0161    1.6628 C   0  0  0  0  0  0  0  0  0  0  0  0
    0.2330    3.0571    1.4617 C   0  0  0  0  0  0  0  0  0  0  0  0
   -1.0230    0.6243    2.2146 C   0  0  0  0  0  0  0  0  0  0  0  0
   -1.0973   -0.3177    1.0158 C   0  0  0  0  0  0  0  0  0  0  0  0
   -0.0108   -1.3802    1.0778 C   0  0  0  0  0  0  0  0  0  0  0  0
   -0.0386   -2.2839   -0.1509 C   0  0  0  0  0  0  0  0  0  0  0  0
    1.0757   -3.2176   -0.2212 N   0  0  0  0  0  0  0  0  0  0  0  0
    1.0331   -4.3323    0.5295 C   0  0  0  0  0  0  0  0  0  0  0  0
    2.1899   -5.2829    0.4314 C   0  0  0  0  0  0  0  0  0  0  0  0
    2.1863   -2.8601   -1.0856 C   0  0  0  0  0  0  0  0  0  0  0  0
    2.9956   -1.6712   -0.5782 C   0  0  0  0  0  0  0  0  0  0  0  0
    4.2517   -1.4628   -1.4151 C   0  0  0  0  0  0  0  0  0  0  0  0
    5.0071   -0.3258   -0.9360 N   0  0  0  0  0  0  0  0  0  0  0  0
    5.1671    0.8180   -1.6025 C   0  0  0  0  0  0  0  0  0  0  0  0
    5.8330    1.9465   -0.9044 C   0  0  0  0  0  0  0  0  0  0  0  0
    1.0847    3.3310    2.5270 C   0  0  0  0  0  0  0  0  0  0  0  0
    2.4488    3.4368    2.2994 C   0  0  0  0  0  0  0  0  0  0  0  0
    2.9674    3.2886    1.0223 C   0  0  0  0  0  0  0  0  0  0  0  0
    2.1190    3.0281   -0.0477 C   0  0  0  0  0  0  0  0  0  0  0  0
    0.7430    2.9104    0.1804 C   0  0  0  0  0  0  0  0  0  0  0  0
    6.3481    1.8599    0.3962 C   0  0  0  0  0  0  0  0  0  0  0  0
    6.9070    2.9627    1.0043 C   0  0  0  0  0  0  0  0  0  0  0  0
    6.9651    4.1823    0.3312 C   0  0  0  0  0  0  0  0  0  0  0  0
    6.4725    4.2910   -0.9532 C   0  0  0  0  0  0  0  0  0  0  0  0
    5.9057    3.1685   -1.5843 C   0  0  0  0  0  0  0  0  0  0  0  0
   -1.9145    4.0309    1.4892 O   0  0  0  0  0  0  0  0  0  0  0  0
    4.7776    0.9500   -2.7745 O   0  0  0  0  0  0  0  0  0  0  0  0
    0.0865   -4.6087    1.2547 O   0  0  0  0  0  0  0  0  0  0  0  0
    2.1348   -6.3615   -0.4484 C   0  0  0  0  0  0  0  0  0  0  0  0
    3.1731   -7.2753   -0.4865 C   0  0  0  0  0  0  0  0  0  0  0  0
    4.2658   -7.1231    0.3598 C   0  0  0  0  0  0  0  0  0  0  0  0
    4.3198   -6.0588    1.2448 C   0  0  0  0  0  0  0  0  0  0  0  0
    3.2699   -5.1319    1.2875 C   0  0  0  0  0  0  0  0  0  0  0  0
   -0.1064    2.7234   -0.8783 O   0  0  0  0  0  0  0  0  0  0  0  0
    2.6475    2.9043   -1.2757 O   0  0  0  0  0  0  0  0  0  0  0  0
    5.4599    3.3499   -2.8287 O   0  0  0  0  0  0  0  0  0  0  0  0
    6.5400    5.4747   -1.5951 O   0  0  0  0  0  0  0  0  0  0  0  0
    0.0181    0.8833    2.4017 H   0  0  0  0  0  0  0  0  0  0  0  0
   -1.3763    0.1151    3.1134 H   0  0  0  0  0  0  0  0  0  0  0  0
   -2.0825   -0.7883    0.9584 H   0  0  0  0  0  0  0  0  0  0  0  0
   -0.9870    0.2672    0.0976 H   0  0  0  0  0  0  0  0  0  0  0  0
    0.9631   -0.8894    1.1514 H   0  0  0  0  0  0  0  0  0  0  0  0
   -0.1233   -1.9849    1.9801 H   0  0  0  0  0  0  0  0  0  0  0  0
   -0.9783   -2.8381   -0.1815 H   0  0  0  0  0  0  0  0  0  0  0  0
   -0.0070   -1.6775   -1.0590 H   0  0  0  0  0  0  0  0  0  0  0  0
    2.8394   -3.7234   -1.2045 H   0  0  0  0  0  0  0  0  0  0  0  0
    1.7884   -2.6352   -2.0791 H   0  0  0  0  0  0  0  0  0  0  0  0
    2.3970   -0.7568   -0.6108 H   0  0  0  0  0  0  0  0  0  0  0  0
    3.2724   -1.8426    0.4646 H   0  0  0  0  0  0  0  0  0  0  0  0
    4.8836   -2.3531   -1.3703 H   0  0  0  0  0  0  0  0  0  0  0  0
    3.9992   -1.2987   -2.4607 H   0  0  0  0  0  0  0  0  0  0  0  0
    5.3221   -0.3810    0.0179 H   0  0  0  0  0  0  0  0  0  0  0  0
    0.6853    3.4487    3.5262 H   0  0  0  0  0  0  0  0  0  0  0  0
    3.1176    3.6460    3.1239 H   0  0  0  0  0  0  0  0  0  0  0  0
    4.0315    3.3791    0.8437 H   0  0  0  0  0  0  0  0  0  0  0  0
    6.3200    0.9331    0.9539 H   0  0  0  0  0  0  0  0  0  0  0  0
    7.3004    2.8854    2.0084 H   0  0  0  0  0  0  0  0  0  0  0  0
    7.3997    5.0527    0.8072 H   0  0  0  0  0  0  0  0  0  0  0  0
    1.2850   -6.4718   -1.1100 H   0  0  0  0  0  0  0  0  0  0  0  0
    3.1397   -8.1111   -1.1718 H   0  0  0  0  0  0  0  0  0  0  0  0
    5.0815   -7.8365    0.3305 H   0  0  0  0  0  0  0  0  0  0  0  0
   -0.0743    1.8129   -1.1946 H   0  0  0  0  0  0  0  0  0  0  0  0
    1.9514    2.8601   -1.9426 H   0  0  0  0  0  0  0  0  0  0  0  0
    5.0853    2.4696   -3.1096 H   0  0  0  0  0  0  0  0  0  0  0  0
    6.1692    5.3927   -2.4823 H   0  0  0  0  0  0  0  0  0  0  0  0
    3.2783   -4.0832    2.1361 O   0  0  0  0  0  0  0  0  0  0  0  0
    4.0993   -4.0615    2.6424 H   0  0  0  0  0  0  0  0  0  0  0  0
    5.3400   -5.8344    2.1020 O   0  0  0  0  0  0  0  0  0  0  0  0
   -3.5645    2.6847    2.7725 H   0  0  0  0  0  0  0  0  0  0  0  0
   -3.7166    0.6581    0.4865 H   0  0  0  0  0  0  0  0  0  0  0  0
   -5.8466    2.4397    1.7589 H   0  0  0  0  0  0  0  0  0  0  0  0
   -6.4904    1.1609   -2.5705 H   0  0  0  0  0  0  0  0  0  0  0  0
   -7.7130    0.8838   -4.6527 H   0  0  0  0  0  0  0  0  0  0  0  0
  -10.1214    0.3014   -4.6322 H   0  0  0  0  0  0  0  0  0  0  0  0
  -11.8792   -0.1704   -1.6089 H   0  0  0  0  0  0  0  0  0  0  0  0
    6.0224   -6.5083    2.0088 H   0  0  0  0  0  0  0  0  0  0  0  0
  6  5  2  0
  3  2  1  0
  3  4  1  0
  2  1  1  0
  5  4  1  0
  5  7  1  0
  7  8  2  0
  7 13  1  0
  8  9  1  0
 14 13  1  0
 13 11  2  0
  9 10  2  0
 11 10  1  0
 11 12  1  0
  1 15  1  0
  2 16  1  0
  3 17  1  0
  4 18  1  0
 14 19  1  0
  1 20  1  0
 20 21  1  0
 21 22  1  0
 20 23  1  0
 23 24  1  0
 24 25  1  0
 25 26  1  0
 26 27  1  0
 27 28  1  0
 28 29  1  0
 27 30  1  0
 30 31  1  0
 31 32  1  0
 32 33  1  0
 33 34  1  0
 34 35  1  0
 22 36  2  0
 36 37  1  0
 37 38  2  0
 38 39  1  0
 39 40  2  0
 40 22  1  0
 35 41  2  0
 41 42  1  0
 42 43  2  0
 43 44  1  0
 44 45  2  0
 45 35  1  0
 21 46  2  0
 34 47  2  0
 28 48  2  0
 29 49  2  0
 49 50  1  0
 50 51  2  0
 51 52  1  0
 52 53  2  0
 53 29  1  0
 40 54  1  0
 39 55  1  0
 45 56  1  0
 44 57  1  0
 23 58  1  0
 23 59  1  0
 24 60  1  0
 24 61  1  0
 25 62  1  0
 25 63  1  0
 26 64  1  0
 26 65  1  0
 30 66  1  0
 30 67  1  0
 31 68  1  0
 31 69  1  0
 32 70  1  0
 32 71  1  0
 33 72  1  0
 36 73  1  0
 37 74  1  0
 38 75  1  0
 41 76  1  0
 42 77  1  0
 43 78  1  0
 49 79  1  0
 50 80  1  0
 51 81  1  0
 54 82  1  0
 55 83  1  0
 56 84  1  0
 57 85  1  0
 53 86  1  0
 86 87  1  0
 52 88  1  0
  1 89  1  0
  2 90  1  0
  3 91  1  0
  8 92  1  0
  9 93  1  0
 10 94  1  0
 12 95  1  0
 88 96  1  0
M  END
