
     RDKit          3D

 30 31  0  0  0  0  0  0  0  0999 V2000
    0.9462   -0.4940   -0.5097 C   0  0  0  0  0  0  0  0  0  0  0  0
    1.5068   -0.1222    0.7216 C   0  0  0  0  0  0  0  0  0  0  0  0
    2.7725    0.4467    0.7295 C   0  0  0  0  0  0  0  0  0  0  0  0
    3.4704    0.6419   -0.4632 C   0  0  0  0  0  0  0  0  0  0  0  0
    2.9023    0.2622   -1.6687 C   0  0  0  0  0  0  0  0  0  0  0  0
    1.6310   -0.3007   -1.6891 C   0  0  0  0  0  0  0  0  0  0  0  0
   -0.2808   -1.1063   -0.5258 O   0  0  0  0  0  0  0  0  0  0  0  0
   -1.3905   -0.3612   -0.3258 C   0  0  0  0  0  0  0  0  0  0  0  0
   -2.5880   -1.0525   -0.1481 C   0  0  0  0  0  0  0  0  0  0  0  0
   -3.7831   -0.3798    0.0363 C   0  0  0  0  0  0  0  0  0  0  0  0
   -3.7782    1.0059    0.0453 C   0  0  0  0  0  0  0  0  0  0  0  0
   -2.6011    1.7123   -0.1298 C   0  0  0  0  0  0  0  0  0  0  0  0
   -1.4109    1.0268   -0.3169 C   0  0  0  0  0  0  0  0  0  0  0  0
    4.8362    1.2426   -0.4282 C   0  0  0  0  0  0  0  0  0  0  0  0
    6.0596    0.0096    0.0856 Cl  0  0  0  0  0  0  0  0  0  0  0  0
   -5.2678    1.8566    0.2781 Cl  0  0  0  0  0  0  0  0  0  0  0  0
   -2.5724   -2.7769   -0.1624 Cl  0  0  0  0  0  0  0  0  0  0  0  0
    0.7513   -0.3488    1.8030 O   0  0  0  0  0  0  0  0  0  0  0  0
    1.2607    0.0169    3.0726 C   0  0  0  0  0  0  0  0  0  0  0  0
    1.1741   -0.5959   -2.6251 H   0  0  0  0  0  0  0  0  0  0  0  0
    3.2339    0.7459    1.6618 H   0  0  0  0  0  0  0  0  0  0  0  0
    3.4386    0.4102   -2.5968 H   0  0  0  0  0  0  0  0  0  0  0  0
    5.1465    1.5969   -1.4079 H   0  0  0  0  0  0  0  0  0  0  0  0
    4.9087    2.0598    0.2855 H   0  0  0  0  0  0  0  0  0  0  0  0
   -0.5001    1.5927   -0.4634 H   0  0  0  0  0  0  0  0  0  0  0  0
   -4.7008   -0.9346    0.1741 H   0  0  0  0  0  0  0  0  0  0  0  0
   -2.5990    2.7932   -0.1250 H   0  0  0  0  0  0  0  0  0  0  0  0
    0.4979   -0.2545    3.7975 H   0  0  0  0  0  0  0  0  0  0  0  0
    2.1818   -0.5207    3.3107 H   0  0  0  0  0  0  0  0  0  0  0  0
    1.4484    1.0910    3.1407 H   0  0  0  0  0  0  0  0  0  0  0  0
  1  2  2  0
  1  6  1  0
  1  7  1  0
  2  3  1  0
  2 18  1  0
  3  4  2  0
  4  5  1  0
  4 14  1  0
  5  6  2  0
  7  8  1  0
  8  9  2  0
  8 13  1  0
  9 10  1  0
  9 17  1  0
 10 11  2  0
 11 12  1  0
 11 16  1  0
 12 13  2  0
 14 15  1  0
 18 19  1  0
  6 20  1  0
  3 21  1  0
  5 22  1  0
 14 23  1  0
 14 24  1  0
 13 25  1  0
 10 26  1  0
 12 27  1  0
 19 28  1  0
 19 29  1  0
 19 30  1  0
M  END
