
     RDKit          3D

 26 27  0  0  0  0  0  0  0  0999 V2000
   -1.5712   -1.1759    0.3219 C   0  0  0  0  0  0  0  0  0  0  0  0
   -0.8123   -0.0183    0.2899 C   0  0  0  0  0  0  0  0  0  0  0  0
    0.5272    0.0488    0.9667 C   0  0  0  0  0  0  0  0  0  0  0  0
    2.9483    0.1010    0.6885 C   0  0  0  0  0  0  0  0  0  0  0  0
    3.8028    0.2423   -0.5664 C   0  0  0  0  0  0  0  0  0  0  0  0
    1.5614   -0.1301   -1.2927 C   0  0  0  0  0  0  0  0  0  0  0  0
    1.5878    0.0167    0.1620 N   0  0  0  0  0  0  0  0  0  0  0  0
   -1.3882    1.0871   -0.3116 C   0  0  0  0  0  0  0  0  0  0  0  0
    0.5967    0.1223    2.1858 O   0  0  0  0  0  0  0  0  0  0  0  0
   -2.6496    1.0641   -0.8712 C   0  0  0  0  0  0  0  0  0  0  0  0
   -3.3665   -0.1231   -0.8235 C   0  0  0  0  0  0  0  0  0  0  0  0
   -2.8338   -1.2585   -0.2284 C   0  0  0  0  0  0  0  0  0  0  0  0
    2.9997   -0.5083   -1.6239 C   0  0  0  0  0  0  0  0  0  0  0  0
   -0.6747    2.2202   -0.3447 F   0  0  0  0  0  0  0  0  0  0  0  0
   -1.0319   -2.2567    0.8986 F   0  0  0  0  0  0  0  0  0  0  0  0
    3.0507    0.9442    1.3716 H   0  0  0  0  0  0  0  0  0  0  0  0
    3.8977    1.2945   -0.8426 H   0  0  0  0  0  0  0  0  0  0  0  0
    4.8066   -0.1551   -0.4235 H   0  0  0  0  0  0  0  0  0  0  0  0
    0.8450   -0.8894   -1.6047 H   0  0  0  0  0  0  0  0  0  0  0  0
    1.2884    0.8130   -1.7734 H   0  0  0  0  0  0  0  0  0  0  0  0
   -3.0608    1.9519   -1.3318 H   0  0  0  0  0  0  0  0  0  0  0  0
   -4.3551   -0.1657   -1.2590 H   0  0  0  0  0  0  0  0  0  0  0  0
   -3.3879   -2.1866   -0.1942 H   0  0  0  0  0  0  0  0  0  0  0  0
    3.2668   -0.2364   -2.6439 H   0  0  0  0  0  0  0  0  0  0  0  0
    3.1394   -1.5859   -1.5155 H   0  0  0  0  0  0  0  0  0  0  0  0
    3.1954   -0.8091    1.2413 H   0  0  0  0  0  0  0  0  0  0  0  0
 13  5  1  0
 13  6  1  0
  5  4  1  0
  6  7  1  0
  4  7  1  0
  7  3  1  0
 14  8  1  0
  3  2  1  0
  3  9  2  0
  2  8  1  0
  2  1  2  0
  8 10  2  0
 15  1  1  0
  1 12  1  0
 10 11  1  0
 12 11  2  0
  4 26  1  0
  4 16  1  0
  5 17  1  0
  5 18  1  0
  6 19  1  0
  6 20  1  0
 10 21  1  0
 11 22  1  0
 12 23  1  0
 13 24  1  0
 13 25  1  0
M  END
