
     RDKit          3D

 29 30  0  0  0  0  0  0  0  0999 V2000
   -2.1103    0.0795    0.1826 C   0  0  0  0  0  0  0  0  0  0  0  0
   -1.7754   -1.2797    0.1951 C   0  0  0  0  0  0  0  0  0  0  0  0
   -2.7546   -2.2111   -0.0901 C   0  0  0  0  0  0  0  0  0  0  0  0
   -4.0684   -1.8113   -0.3892 C   0  0  0  0  0  0  0  0  0  0  0  0
   -4.4279   -0.4769   -0.4087 C   0  0  0  0  0  0  0  0  0  0  0  0
    3.2652   -0.2867    0.0257 P   0  0  1  0  0  0  0  0  0  0  0  0
    4.6062   -0.0600    0.6147 O   0  0  0  0  0  0  0  0  0  0  0  0
    2.3743    1.0698   -0.1746 N   0  0  0  0  0  0  0  0  0  0  0  0
    0.9551    1.1143   -0.4776 C   0  0  0  0  0  0  0  0  0  0  0  0
   -1.3698    1.2814    0.4317 C   0  0  0  0  0  0  0  0  0  0  0  0
   -2.2543    2.3093    0.2660 C   0  0  0  0  0  0  0  0  0  0  0  0
   -3.4892    1.8218   -0.0636 N   0  0  0  0  0  0  0  0  0  0  0  0
   -3.4362    0.4605   -0.1216 C   0  0  0  0  0  0  0  0  0  0  0  0
    3.2819   -0.9348   -1.4502 O   0  0  0  0  0  0  0  0  0  0  0  0
    2.2930   -1.2497    0.8767 O   0  0  0  0  0  0  0  0  0  0  0  0
   -0.7642   -1.5950    0.4270 H   0  0  0  0  0  0  0  0  0  0  0  0
   -2.5116   -3.2659   -0.0840 H   0  0  0  0  0  0  0  0  0  0  0  0
   -4.8146   -2.5645   -0.6078 H   0  0  0  0  0  0  0  0  0  0  0  0
   -5.4411   -0.1727   -0.6391 H   0  0  0  0  0  0  0  0  0  0  0  0
    2.7838    1.9244    0.1710 H   0  0  0  0  0  0  0  0  0  0  0  0
    0.7745    1.8995   -1.2150 H   0  0  0  0  0  0  0  0  0  0  0  0
    0.6647    0.1777   -0.9551 H   0  0  0  0  0  0  0  0  0  0  0  0
    0.3385    0.6277    1.5232 H   0  0  0  0  0  0  0  0  0  0  0  0
    0.3244    2.3459    1.1706 H   0  0  0  0  0  0  0  0  0  0  0  0
   -2.0940    3.3719    0.3635 H   0  0  0  0  0  0  0  0  0  0  0  0
    3.8136   -1.7374   -1.5295 H   0  0  0  0  0  0  0  0  0  0  0  0
    2.5667   -2.1751    0.9207 H   0  0  0  0  0  0  0  0  0  0  0  0
   -4.3052    2.3864   -0.2284 H   0  0  0  0  0  0  0  0  0  0  0  0
    0.0837    1.3637    0.7558 C   0  0  0  0  0  0  0  0  0  0  0  0
  5  4  2  0
  5 13  1  0
  4  3  1  0
 13 12  1  0
 13  1  2  0
  3  2  2  0
 12 11  1  0
  1  2  1  0
  1 10  1  0
 11 10  2  0
 10 29  1  0
 29  9  1  0
  9  8  1  0
  8  6  1  0
  7  6  2  0
  6 14  1  6
  6 15  1  0
  2 16  1  0
  3 17  1  0
  4 18  1  0
  5 19  1  0
  8 20  1  0
  9 21  1  0
  9 22  1  0
 29 23  1  0
 29 24  1  0
 11 25  1  0
 14 26  1  0
 15 27  1  0
 12 28  1  0
M  END
