
     RDKit          3D

 31 33  0  0  0  0  0  0  0  0999 V2000
   -0.5242   -2.9438    0.0770 Cl  0  0  0  0  0  0  0  0  0  0  0  0
    0.2367   -1.3958   -0.0086 C   0  0  0  0  0  0  0  0  0  0  0  0
    1.5956   -1.2883    0.1127 C   0  0  0  0  0  0  0  0  0  0  0  0
    2.2114   -0.0334    0.0415 C   0  0  0  0  0  0  0  0  0  0  0  0
    3.6619    0.0573    0.1745 C   0  0  0  0  0  0  0  0  0  0  0  0
    4.4042   -0.9019    0.3457 O   0  0  0  0  0  0  0  0  0  0  0  0
    4.1585    1.3317    0.0926 N   0  0  0  0  0  0  0  0  0  0  0  0
    3.4068    2.4550   -0.0960 C   0  0  0  0  0  0  0  0  0  0  0  0
    1.4259    1.1144   -0.1541 C   0  0  0  0  0  0  0  0  0  0  0  0
    0.0348    0.9856   -0.2755 C   0  0  0  0  0  0  0  0  0  0  0  0
   -0.5746   -0.2546   -0.2075 C   0  0  0  0  0  0  0  0  0  0  0  0
   -1.8811   -0.4803   -0.3176 O   0  0  0  0  0  0  0  0  0  0  0  0
   -2.7646    0.6111   -0.5905 C   0  0  2  0  0  0  0  0  0  0  0  0
   -3.0317    1.4924    0.6524 C   0  0  0  0  0  0  0  0  0  0  0  0
    2.0684    2.3926   -0.2216 C   0  0  0  0  0  0  0  0  0  0  0  0
   -4.1395    0.0288   -0.9366 C   0  0  0  0  0  0  0  0  0  0  0  0
   -5.1051    0.7931   -0.0210 C   0  0  0  0  0  0  0  0  0  0  0  0
   -4.3404    1.1287    1.1728 N   0  0  0  0  0  0  0  0  0  0  0  0
    2.1964   -2.1752    0.2627 H   0  0  0  0  0  0  0  0  0  0  0  0
    5.1600    1.4343    0.1780 H   0  0  0  0  0  0  0  0  0  0  0  0
    3.9593    3.3819   -0.1365 H   0  0  0  0  0  0  0  0  0  0  0  0
    1.4924    3.2937   -0.3735 H   0  0  0  0  0  0  0  0  0  0  0  0
   -0.5486    1.8856   -0.4158 H   0  0  0  0  0  0  0  0  0  0  0  0
   -2.3551    1.1948   -1.4196 H   0  0  0  0  0  0  0  0  0  0  0  0
   -2.2629    1.4027    1.4204 H   0  0  0  0  0  0  0  0  0  0  0  0
   -3.0538    2.5384    0.3333 H   0  0  0  0  0  0  0  0  0  0  0  0
   -4.3776    0.1274   -1.9952 H   0  0  0  0  0  0  0  0  0  0  0  0
   -4.1557   -1.0353   -0.6907 H   0  0  0  0  0  0  0  0  0  0  0  0
   -4.2478    0.2952    1.7423 H   0  0  0  0  0  0  0  0  0  0  0  0
   -5.4319    1.7186   -0.5039 H   0  0  0  0  0  0  0  0  0  0  0  0
   -5.9977    0.2216    0.2315 H   0  0  0  0  0  0  0  0  0  0  0  0
  1  2  1  0
  2  3  2  0
  2 11  1  0
  3  4  1  0
  4  5  1  0
  4  9  2  0
  5  6  2  0
  5  7  1  0
  7  8  1  0
  8 15  2  0
  9 10  1  0
  9 15  1  0
 10 11  2  0
 11 12  1  0
 12 13  1  0
 13 14  1  0
 13 16  1  0
 14 18  1  0
 16 17  1  0
 17 18  1  0
  3 19  1  0
  7 20  1  0
  8 21  1  0
 15 22  1  0
 10 23  1  0
 13 24  1  6
 14 25  1  0
 14 26  1  0
 16 27  1  0
 16 28  1  0
 18 29  1  0
 17 30  1  0
 17 31  1  0
M  END
