
     RDKit          3D

 20 20  0  0  0  0  0  0  0  0999 V2000
   -1.6952   -0.1640    0.1826 C   0  0  0  0  0  0  0  0  0  0  0  0
    0.4885   -1.2345    0.0994 N   0  0  0  0  0  0  0  0  0  0  0  0
   -2.4447   -1.0784    0.5362 O   0  0  0  0  0  0  0  0  0  0  0  0
   -0.2128   -0.0106    0.4740 C   0  0  1  0  0  0  0  0  0  0  0  0
    0.3758    1.2246   -0.2231 C   0  0  0  0  0  0  0  0  0  0  0  0
    2.5739    0.0444   -0.3300 C   0  0  0  0  0  0  0  0  0  0  0  0
    1.9173   -1.1661    0.3327 C   0  0  0  0  0  0  0  0  0  0  0  0
    1.8618    1.3253    0.0512 C   0  0  0  0  0  0  0  0  0  0  0  0
   -2.2507    0.8337   -0.5580 O   0  0  0  0  0  0  0  0  0  0  0  0
    0.0814   -2.0231    0.5688 H   0  0  0  0  0  0  0  0  0  0  0  0
   -0.1599    0.1725    1.5959 H   0  0  0  0  0  0  0  0  0  0  0  0
    0.1897    1.1585   -1.3266 H   0  0  0  0  0  0  0  0  0  0  0  0
   -0.1560    2.1340    0.1572 H   0  0  0  0  0  0  0  0  0  0  0  0
    3.6458    0.0883   -0.0084 H   0  0  0  0  0  0  0  0  0  0  0  0
    2.5542   -0.0798   -1.4439 H   0  0  0  0  0  0  0  0  0  0  0  0
    2.1634   -1.1414    1.4363 H   0  0  0  0  0  0  0  0  0  0  0  0
    2.3624   -2.1085   -0.0961 H   0  0  0  0  0  0  0  0  0  0  0  0
    2.2902    2.1837   -0.5286 H   0  0  0  0  0  0  0  0  0  0  0  0
    2.0294    1.5387    1.1399 H   0  0  0  0  0  0  0  0  0  0  0  0
   -3.1956    0.6487   -0.6915 H   0  0  0  0  0  0  0  0  0  0  0  0
  1  3  2  0
  1  4  1  0
  1  9  1  0
  2  4  1  0
  2  7  1  0
  4  5  1  0
  5  8  1  0
  6  7  1  0
  6  8  1  0
  2 10  1  0
  4 11  1  1
  5 12  1  0
  5 13  1  0
  6 14  1  0
  6 15  1  0
  7 16  1  0
  7 17  1  0
  8 18  1  0
  8 19  1  0
  9 20  1  0
M  END
