
     RDKit          3D

 42 43  0  0  0  0  0  0  0  0999 V2000
   -4.5669    1.1248    0.7897 C   0  0  0  0  0  0  0  0  0  0  0  0
   -5.7487    0.6146    1.3117 C   0  0  0  0  0  0  0  0  0  0  0  0
   -6.3380   -0.5049    0.7384 C   0  0  0  0  0  0  0  0  0  0  0  0
   -5.7369   -1.1072   -0.3597 C   0  0  0  0  0  0  0  0  0  0  0  0
   -4.5557   -0.5927   -0.8774 C   0  0  0  0  0  0  0  0  0  0  0  0
   -3.9541    0.5301   -0.3114 C   0  0  0  0  0  0  0  0  0  0  0  0
   -2.6509    1.0539   -0.8453 C   0  0  0  0  0  0  0  0  0  0  0  0
   -1.4485    0.3464   -0.2175 C   0  0  0  0  0  0  0  0  0  0  0  0
   -0.1389    0.8811   -0.7797 C   0  0  0  0  0  0  0  0  0  0  0  0
    1.0439    0.3090   -0.1612 N   0  0  0  0  0  0  0  0  0  0  0  0
    2.2314    1.0767   -0.4874 C   0  0  0  0  0  0  0  0  0  0  0  0
    1.2365   -1.0853   -0.5029 C   0  0  0  0  0  0  0  0  0  0  0  0
    2.3961   -1.6705    0.2923 C   0  0  1  0  0  0  0  0  0  0  0  0
    2.6362   -3.0179   -0.0563 O   0  0  0  0  0  0  0  0  0  0  0  0
    3.6747   -0.8964    0.0136 C   0  0  2  0  0  0  0  0  0  0  0  0
    4.7435   -1.3574    0.8086 O   0  0  0  0  0  0  0  0  0  0  0  0
    3.4557    0.5875    0.2834 C   0  0  1  0  0  0  0  0  0  0  0  0
    4.6947    1.3900   -0.0876 C   0  0  0  0  0  0  0  0  0  0  0  0
    4.4735    2.7507    0.2168 O   0  0  0  0  0  0  0  0  0  0  0  0
   -4.1145    1.9997    1.2431 H   0  0  0  0  0  0  0  0  0  0  0  0
   -6.2114    1.0949    2.1646 H   0  0  0  0  0  0  0  0  0  0  0  0
   -7.2602   -0.9028    1.1420 H   0  0  0  0  0  0  0  0  0  0  0  0
   -6.1908   -1.9774   -0.8168 H   0  0  0  0  0  0  0  0  0  0  0  0
   -4.0948   -1.0696   -1.7354 H   0  0  0  0  0  0  0  0  0  0  0  0
   -2.5769    2.1282   -0.6558 H   0  0  0  0  0  0  0  0  0  0  0  0
   -2.6167    0.9250   -1.9309 H   0  0  0  0  0  0  0  0  0  0  0  0
   -1.5435   -0.7281   -0.3957 H   0  0  0  0  0  0  0  0  0  0  0  0
   -1.4618    0.4876    0.8670 H   0  0  0  0  0  0  0  0  0  0  0  0
   -0.1120    1.9614   -0.6091 H   0  0  0  0  0  0  0  0  0  0  0  0
   -0.1298    0.7446   -1.8757 H   0  0  0  0  0  0  0  0  0  0  0  0
    2.0469    2.1229   -0.2410 H   0  0  0  0  0  0  0  0  0  0  0  0
    2.4493    1.0404   -1.5718 H   0  0  0  0  0  0  0  0  0  0  0  0
    0.3318   -1.6510   -0.2704 H   0  0  0  0  0  0  0  0  0  0  0  0
    1.4296   -1.2205   -1.5833 H   0  0  0  0  0  0  0  0  0  0  0  0
    2.1633   -1.5772    1.3628 H   0  0  0  0  0  0  0  0  0  0  0  0
    1.9401   -3.5618    0.3243 H   0  0  0  0  0  0  0  0  0  0  0  0
    3.9100   -1.0180   -1.0586 H   0  0  0  0  0  0  0  0  0  0  0  0
    4.8374   -2.3036    0.6565 H   0  0  0  0  0  0  0  0  0  0  0  0
    3.2585    0.7147    1.3552 H   0  0  0  0  0  0  0  0  0  0  0  0
    4.9005    1.2483   -1.1585 H   0  0  0  0  0  0  0  0  0  0  0  0
    5.5616    1.0014    0.4578 H   0  0  0  0  0  0  0  0  0  0  0  0
    5.2297    3.2524   -0.0997 H   0  0  0  0  0  0  0  0  0  0  0  0
  1  2  2  0
  1  6  1  0
  1 20  1  0
  2  3  1  0
  2 21  1  0
  3  4  2  0
  3 22  1  0
  4  5  1  0
  4 23  1  0
  5  6  2  0
  5 24  1  0
  6  7  1  0
  7  8  1  0
  7 25  1  0
  7 26  1  0
  8  9  1  0
  8 27  1  0
  8 28  1  0
  9 10  1  0
  9 29  1  0
  9 30  1  0
 10 11  1  0
 10 12  1  0
 11 17  1  0
 11 31  1  0
 11 32  1  0
 12 13  1  0
 12 33  1  0
 12 34  1  0
 13 14  1  0
 13 15  1  0
 13 35  1  1
 14 36  1  0
 15 16  1  0
 15 17  1  0
 15 37  1  6
 16 38  1  0
 17 18  1  0
 17 39  1  1
 18 19  1  0
 18 40  1  0
 18 41  1  0
 19 42  1  0
M  END
