
     RDKit          3D

 52 56  0  0  0  0  0  0  0  0999 V2000
   -0.8244    0.0047    0.0543 C   0  0  2  0  0  0  0  0  0  0  0  0
   -1.5683    0.7115   -1.0744 C   0  0  2  0  0  0  0  0  0  0  0  0
   -0.6245    2.7787   -0.1646 N   0  0  0  0  0  0  0  0  0  0  0  0
   -0.5791    2.2074    1.1180 C   0  0  0  0  0  0  0  0  0  0  0  0
   -1.1510    2.1439   -1.2608 C   0  0  0  0  0  0  0  0  0  0  0  0
   -0.9076    0.8826    1.1893 N   0  0  0  0  0  0  0  0  0  0  0  0
    0.5974   -0.3620   -0.2782 C   0  0  0  0  0  0  0  0  0  0  0  0
   -3.0546   -0.6941    0.0551 N   0  0  0  0  0  0  0  0  0  0  0  0
   -1.7192   -1.2084    0.3043 C   0  0  0  0  0  0  0  0  0  0  0  0
   -3.0402    0.5620   -0.6764 C   0  0  0  0  0  0  0  0  0  0  0  0
    1.7256   -0.0218    0.4005 C   0  0  0  0  0  0  0  0  0  0  0  0
    2.9224   -0.5138   -0.2057 C   0  0  0  0  0  0  0  0  0  0  0  0
    0.9842   -1.3011   -1.6742 S   0  0  0  0  0  0  0  0  0  0  0  0
    2.6569   -1.2253   -1.3407 C   0  0  0  0  0  0  0  0  0  0  0  0
   -4.1371   -1.4646    0.2825 C   0  0  0  0  0  0  0  0  0  0  0  0
    8.6770    0.0476   -1.5821 N   0  0  0  0  0  0  0  0  0  0  0  0
   -0.2835    2.8332    2.1839 N   0  0  0  0  0  0  0  0  0  0  0  0
    4.2694   -0.2827    0.3316 C   0  0  0  0  0  0  0  0  0  0  0  0
   -5.4813   -1.0258    0.1366 C   0  0  0  0  0  0  0  0  0  0  0  0
    7.7684    0.0156   -0.8744 C   0  0  0  0  0  0  0  0  0  0  0  0
   -1.2841    2.6991   -2.3309 O   0  0  0  0  0  0  0  0  0  0  0  0
   -6.5079   -1.9476    0.3435 C   0  0  0  0  0  0  0  0  0  0  0  0
    5.3733   -0.2326   -0.5148 C   0  0  0  0  0  0  0  0  0  0  0  0
   -0.1830    4.1587   -0.2950 C   0  0  0  0  0  0  0  0  0  0  0  0
    6.6472   -0.0309    0.0089 C   0  0  0  0  0  0  0  0  0  0  0  0
   -3.8805   -2.7144    0.6801 N   0  0  0  0  0  0  0  0  0  0  0  0
    4.4738   -0.1142    1.7028 C   0  0  0  0  0  0  0  0  0  0  0  0
   -4.8733   -3.5581    0.8904 C   0  0  0  0  0  0  0  0  0  0  0  0
    5.7442    0.0938    2.2189 C   0  0  0  0  0  0  0  0  0  0  0  0
   -6.2135   -3.2426    0.7151 C   0  0  0  0  0  0  0  0  0  0  0  0
    6.8437    0.1360    1.3793 C   0  0  0  0  0  0  0  0  0  0  0  0
   -5.8660    0.3153   -0.1301 C   0  0  0  0  0  0  0  0  0  0  0  0
   -6.2457    1.3891   -0.3162 N   0  0  0  0  0  0  0  0  0  0  0  0
   -1.3987    0.1991   -2.0229 H   0  0  0  0  0  0  0  0  0  0  0  0
   -1.4658   -2.0234   -0.3796 H   0  0  0  0  0  0  0  0  0  0  0  0
   -1.6064   -1.5882    1.3206 H   0  0  0  0  0  0  0  0  0  0  0  0
   -3.3756    1.3975   -0.0580 H   0  0  0  0  0  0  0  0  0  0  0  0
   -3.6712    0.5205   -1.5648 H   0  0  0  0  0  0  0  0  0  0  0  0
    1.7205    0.5817    1.2978 H   0  0  0  0  0  0  0  0  0  0  0  0
    3.3556   -1.7334   -1.9884 H   0  0  0  0  0  0  0  0  0  0  0  0
   -0.1451    3.8247    2.0475 H   0  0  0  0  0  0  0  0  0  0  0  0
   -7.5343   -1.6268    0.2250 H   0  0  0  0  0  0  0  0  0  0  0  0
    5.2468   -0.3346   -1.5846 H   0  0  0  0  0  0  0  0  0  0  0  0
    0.7972    4.2822    0.1617 H   0  0  0  0  0  0  0  0  0  0  0  0
   -0.1035    4.4116   -1.3451 H   0  0  0  0  0  0  0  0  0  0  0  0
   -0.8880    4.8456    0.1735 H   0  0  0  0  0  0  0  0  0  0  0  0
    3.6339   -0.1608    2.3835 H   0  0  0  0  0  0  0  0  0  0  0  0
   -4.5866   -4.5517    1.2162 H   0  0  0  0  0  0  0  0  0  0  0  0
    5.8768    0.2160    3.2851 H   0  0  0  0  0  0  0  0  0  0  0  0
   -6.9883   -3.9749    0.8849 H   0  0  0  0  0  0  0  0  0  0  0  0
    7.8374    0.2964    1.7739 H   0  0  0  0  0  0  0  0  0  0  0  0
   -0.7561    0.4795    2.1023 H   0  0  0  0  0  0  0  0  0  0  0  0
 33 32  3  0
 14 13  1  0
 14 12  2  0
 13  7  1  0
 32 19  1  0
 27 29  2  0
 27 18  1  0
 29 31  1  0
 12 18  1  0
 12 11  1  0
 18 23  2  0
 19 22  2  0
 19 15  1  0
 22 30  1  0
  7 11  2  0
  1  7  1  6
  9  8  1  0
  9  1  1  0
 31 25  2  0
 15  8  1  0
 15 26  2  0
  8 10  1  0
 23 25  1  0
  1  2  1  0
  1  6  1  0
 30 28  2  0
 25 20  1  0
  2 10  1  0
  2  5  1  0
 26 28  1  0
  6  4  1  0
 20 16  3  0
  5 21  2  0
  5  3  1  0
  4  3  1  0
  4 17  2  0
  3 24  1  0
  2 34  1  6
  9 35  1  0
  9 36  1  0
 10 37  1  0
 10 38  1  0
 11 39  1  0
 14 40  1  0
 17 41  1  0
 22 42  1  0
 23 43  1  0
 24 44  1  0
 24 45  1  0
 24 46  1  0
 27 47  1  0
 28 48  1  0
 29 49  1  0
 30 50  1  0
 31 51  1  0
  6 52  1  0
M  END
