
     RDKit          3D

 20 21  0  0  0  0  0  0  0  0999 V2000
   -0.8433   -1.4536    0.0146 N   0  0  0  0  0  0  0  0  0  0  0  0
   -1.8709   -0.6312    0.0240 C   0  0  0  0  0  0  0  0  0  0  0  0
   -1.8310    0.7172    0.0142 N   0  0  0  0  0  0  0  0  0  0  0  0
   -0.6510    1.2984   -0.0005 C   0  0  0  0  0  0  0  0  0  0  0  0
    1.8587    1.0661   -0.0147 C   0  0  0  0  0  0  0  0  0  0  0  0
    2.9605    0.2460   -0.0201 C   0  0  0  0  0  0  0  0  0  0  0  0
    2.7853   -1.1478   -0.0149 C   0  0  0  0  0  0  0  0  0  0  0  0
    1.5294   -1.7002   -0.0036 C   0  0  0  0  0  0  0  0  0  0  0  0
    0.5639    0.5214   -0.0026 C   0  0  0  0  0  0  0  0  0  0  0  0
    0.3810   -0.8782    0.0035 C   0  0  0  0  0  0  0  0  0  0  0  0
   -3.1113   -1.1674    0.0846 N   0  0  0  0  0  0  0  0  0  0  0  0
   -0.6184    2.6332   -0.0224 N   0  0  0  0  0  0  0  0  0  0  0  0
    2.0090    2.1388   -0.0202 H   0  0  0  0  0  0  0  0  0  0  0  0
    3.9558    0.6691   -0.0290 H   0  0  0  0  0  0  0  0  0  0  0  0
    3.6527   -1.7956   -0.0195 H   0  0  0  0  0  0  0  0  0  0  0  0
    1.3946   -2.7744   -0.0003 H   0  0  0  0  0  0  0  0  0  0  0  0
   -3.2140   -2.1492   -0.1056 H   0  0  0  0  0  0  0  0  0  0  0  0
   -3.8948   -0.5809   -0.1444 H   0  0  0  0  0  0  0  0  0  0  0  0
   -1.4807    3.1482    0.0275 H   0  0  0  0  0  0  0  0  0  0  0  0
    0.2347    3.1583    0.0283 H   0  0  0  0  0  0  0  0  0  0  0  0
  1  2  2  0
  1 10  1  0
  2  3  1  0
  2 11  1  0
  3  4  2  0
  4  9  1  0
  4 12  1  0
  5  6  1  0
  5  9  2  0
  6  7  2  0
  7  8  1  0
  8 10  2  0
  9 10  1  0
  5 13  1  0
  6 14  1  0
  7 15  1  0
  8 16  1  0
 11 17  1  0
 11 18  1  0
 12 19  1  0
 12 20  1  0
M  END
