
     RDKit          3D

 65 67  0  0  0  0  0  0  0  0999 V2000
   -4.2702   -0.2180   -0.6682 C   0  0  0  0  0  0  0  0  0  0  0  0
   -5.2334   -0.0511    0.3304 C   0  0  0  0  0  0  0  0  0  0  0  0
   -3.0087    0.3257   -0.5234 C   0  0  0  0  0  0  0  0  0  0  0  0
   -6.5102   -0.5827    0.1427 N   0  0  0  0  0  0  0  0  0  0  0  0
   -4.8962    0.6793    1.4683 C   0  0  0  0  0  0  0  0  0  0  0  0
   -6.9732   -1.0711   -1.1429 C   0  0  0  0  0  0  0  0  0  0  0  0
   -7.3931   -0.9161    1.1308 C   0  0  0  0  0  0  0  0  0  0  0  0
   -8.4506   -1.3094   -0.8462 C   0  0  2  0  0  0  0  0  0  0  0  0
   -9.3269   -0.1463   -1.2883 C   0  0  0  0  0  0  0  0  0  0  0  0
   -8.4950   -1.4348    0.5806 O   0  0  0  0  0  0  0  0  0  0  0  0
  -10.6930   -0.2675   -0.8523 N   0  0  0  0  0  0  0  0  0  0  0  0
  -11.5959   -1.0404   -1.4827 C   0  0  0  0  0  0  0  0  0  0  0  0
  -12.9761   -1.0552   -0.8774 C   0  0  0  0  0  0  0  0  0  0  0  0
  -11.3193   -1.6871   -2.4843 O   0  0  0  0  0  0  0  0  0  0  0  0
   -7.2642   -0.8016    2.3222 O   0  0  0  0  0  0  0  0  0  0  0  0
   -3.6236    1.1990    1.5725 C   0  0  0  0  0  0  0  0  0  0  0  0
   -2.6330    1.0582    0.6059 C   0  0  0  0  0  0  0  0  0  0  0  0
   -3.3423    1.8978    2.6857 F   0  0  0  0  0  0  0  0  0  0  0  0
   -1.3091    1.6581    0.7874 C   0  0  0  0  0  0  0  0  0  0  0  0
   -0.3070    1.6236   -0.0930 C   0  0  0  0  0  0  0  0  0  0  0  0
    1.0265    2.2572    0.1303 C   0  0  0  0  0  0  0  0  0  0  0  0
    2.1622    1.2343    0.1086 C   0  0  0  0  0  0  0  0  0  0  0  0
    3.5172    1.9089    0.2466 C   0  0  0  0  0  0  0  0  0  0  0  0
    4.5819    0.9264    0.2174 N   0  0  0  0  0  0  0  0  0  0  0  0
    5.8696    1.2508    0.0645 C   0  0  0  0  0  0  0  0  0  0  0  0
    6.8229    0.0662    0.1203 C   0  0  0  0  0  0  0  0  0  0  0  0
    6.2560    2.4000   -0.0947 O   0  0  0  0  0  0  0  0  0  0  0  0
    8.1796    0.4111   -0.3649 C   0  0  0  0  0  0  0  0  0  0  0  0
    9.2052   -1.8250   -0.1267 C   0  0  0  0  0  0  0  0  0  0  0  0
    8.2362   -2.3917    0.3347 O   0  0  0  0  0  0  0  0  0  0  0  0
   10.3785   -2.4960   -0.3425 N   0  0  0  0  0  0  0  0  0  0  0  0
   11.5446   -1.9585   -0.8473 C   0  0  0  0  0  0  0  0  0  0  0  0
   12.5246   -2.6518   -0.9986 O   0  0  0  0  0  0  0  0  0  0  0  0
   11.5638   -0.6127   -1.1724 N   0  0  0  0  0  0  0  0  0  0  0  0
   10.5167    0.1162   -1.0154 C   0  0  0  0  0  0  0  0  0  0  0  0
   10.6329    1.5559   -1.3956 C   0  0  0  0  0  0  0  0  0  0  0  0
    9.2493   -0.3993   -0.4955 C   0  0  0  0  0  0  0  0  0  0  0  0
   -4.4943   -0.7771   -1.5659 H   0  0  0  0  0  0  0  0  0  0  0  0
   -2.2926    0.1679   -1.3193 H   0  0  0  0  0  0  0  0  0  0  0  0
   -5.6012    0.8607    2.2644 H   0  0  0  0  0  0  0  0  0  0  0  0
   -6.8228   -0.3290   -1.9281 H   0  0  0  0  0  0  0  0  0  0  0  0
   -6.4593   -1.9910   -1.4302 H   0  0  0  0  0  0  0  0  0  0  0  0
   -8.8082   -2.2445   -1.2740 H   0  0  0  0  0  0  0  0  0  0  0  0
   -8.9293    0.7917   -0.8967 H   0  0  0  0  0  0  0  0  0  0  0  0
   -9.2829   -0.0829   -2.3768 H   0  0  0  0  0  0  0  0  0  0  0  0
  -10.9634    0.2156   -0.0124 H   0  0  0  0  0  0  0  0  0  0  0  0
  -13.7037   -0.7602   -1.6333 H   0  0  0  0  0  0  0  0  0  0  0  0
  -13.2236   -2.0708   -0.5688 H   0  0  0  0  0  0  0  0  0  0  0  0
  -13.0835   -0.3970   -0.0176 H   0  0  0  0  0  0  0  0  0  0  0  0
   -1.1420    2.1837    1.7212 H   0  0  0  0  0  0  0  0  0  0  0  0
   -0.4254    1.1095   -1.0434 H   0  0  0  0  0  0  0  0  0  0  0  0
    1.2055    2.9951   -0.6595 H   0  0  0  0  0  0  0  0  0  0  0  0
    1.0319    2.8022    1.0780 H   0  0  0  0  0  0  0  0  0  0  0  0
    2.0187    0.5158    0.9208 H   0  0  0  0  0  0  0  0  0  0  0  0
    2.1312    0.6677   -0.8268 H   0  0  0  0  0  0  0  0  0  0  0  0
    3.6608    2.6170   -0.5722 H   0  0  0  0  0  0  0  0  0  0  0  0
    3.5546    2.4851    1.1769 H   0  0  0  0  0  0  0  0  0  0  0  0
    4.3406   -0.0377    0.3848 H   0  0  0  0  0  0  0  0  0  0  0  0
    6.8796   -0.2871    1.1561 H   0  0  0  0  0  0  0  0  0  0  0  0
    6.4164   -0.7807   -0.4378 H   0  0  0  0  0  0  0  0  0  0  0  0
    8.3094    1.4506   -0.6428 H   0  0  0  0  0  0  0  0  0  0  0  0
   10.3941   -3.4810   -0.1058 H   0  0  0  0  0  0  0  0  0  0  0  0
   11.6363    1.7593   -1.7580 H   0  0  0  0  0  0  0  0  0  0  0  0
    9.9192    1.8149   -2.1783 H   0  0  0  0  0  0  0  0  0  0  0  0
   10.4308    2.2064   -0.5438 H   0  0  0  0  0  0  0  0  0  0  0  0
  1  2  2  0
  1  3  1  0
  2  4  1  0
  2  5  1  0
  3 17  2  0
  4  6  1  0
  4  7  1  0
  5 16  2  0
  6  8  1  0
  7 10  1  0
  7 15  2  0
  8  9  1  0
  8 10  1  0
  9 11  1  0
 11 12  1  0
 12 13  1  0
 12 14  2  0
 16 17  1  0
 16 18  1  0
 17 19  1  0
 19 20  2  0
 20 21  1  0
 21 22  1  0
 22 23  1  0
 23 24  1  0
 24 25  1  0
 25 26  1  0
 25 27  2  0
 26 28  1  0
 28 37  2  0
 29 30  2  0
 29 31  1  0
 29 37  1  0
 31 32  1  0
 32 33  2  0
 32 34  1  0
 34 35  2  0
 35 36  1  0
 35 37  1  0
  1 38  1  0
  3 39  1  0
  5 40  1  0
  6 41  1  0
  6 42  1  0
  8 43  1  6
  9 44  1  0
  9 45  1  0
 11 46  1  0
 13 47  1  0
 13 48  1  0
 13 49  1  0
 19 50  1  0
 20 51  1  0
 21 52  1  0
 21 53  1  0
 22 54  1  0
 22 55  1  0
 23 56  1  0
 23 57  1  0
 24 58  1  0
 26 59  1  0
 26 60  1  0
 28 61  1  0
 31 62  1  0
 36 63  1  0
 36 64  1  0
 36 65  1  0
M  END
