
     RDKit          3D

 40 41  0  0  0  0  0  0  0  0999 V2000
    4.0227   -5.3621    1.2501 N   0  0  0  0  0  0  0  0  0  0  0  0
    3.9286   -3.9124    1.2737 C   0  0  2  0  0  0  0  0  0  0  0  0
    2.6979   -3.4674    0.4950 C   0  0  0  0  0  0  0  0  0  0  0  0
    2.2387   -3.8904   -0.5697 O   0  0  0  0  0  0  0  0  0  0  0  0
    2.0225   -2.4453    1.0904 O   0  0  0  0  0  0  0  0  0  0  0  0
    5.1840   -3.2385    0.6861 C   0  0  0  0  0  0  0  0  0  0  0  0
    5.3544   -1.8556    1.2124 C   0  0  0  0  0  0  0  0  0  0  0  0
    5.9771   -1.7089    2.5477 C   0  0  0  0  0  0  0  0  0  0  0  0
    6.3473   -2.6875    3.2171 O   0  0  0  0  0  0  0  0  0  0  0  0
    6.1259   -0.3418    3.0251 C   0  0  0  0  0  0  0  0  0  0  0  0
    5.7240    0.7339    2.3005 C   0  0  0  0  0  0  0  0  0  0  0  0
    5.8702    2.0154    2.7620 O   0  0  0  0  0  0  0  0  0  0  0  0
    5.1016    0.5995    0.9655 C   0  0  0  0  0  0  0  0  0  0  0  0
    4.7355    1.7011    0.3201 N   0  0  0  0  0  0  0  0  0  0  0  0
    4.1418    1.7182   -0.8441 N   0  0  0  0  0  0  0  0  0  0  0  0
    3.7512    3.0131   -1.4077 C   0  0  0  0  0  0  0  0  0  0  0  0
    4.7850    3.6457   -2.2904 C   0  0  0  0  0  0  0  0  0  0  0  0
    5.9889    4.1025   -1.7426 C   0  0  0  0  0  0  0  0  0  0  0  0
    6.9499    4.6912   -2.5635 C   0  0  0  0  0  0  0  0  0  0  0  0
    6.7129    4.8273   -3.9317 C   0  0  0  0  0  0  0  0  0  0  0  0
    5.5128    4.3735   -4.4799 C   0  0  0  0  0  0  0  0  0  0  0  0
    4.5500    3.7841   -3.6618 C   0  0  0  0  0  0  0  0  0  0  0  0
    4.9590   -0.7810    0.5004 C   0  0  0  0  0  0  0  0  0  0  0  0
    3.1494   -5.7673    1.5245 H   0  0  0  0  0  0  0  0  0  0  0  0
    4.7535   -5.6685    1.8618 H   0  0  0  0  0  0  0  0  0  0  0  0
    3.7820   -3.5128    2.3280 H   0  0  0  0  0  0  0  0  0  0  0  0
    1.2507   -2.2032    0.5533 H   0  0  0  0  0  0  0  0  0  0  0  0
    5.1017   -3.2254   -0.4328 H   0  0  0  0  0  0  0  0  0  0  0  0
    6.0945   -3.8399    0.9595 H   0  0  0  0  0  0  0  0  0  0  0  0
    6.5871   -0.2228    4.0166 H   0  0  0  0  0  0  0  0  0  0  0  0
    6.5516    2.0123    3.4537 H   0  0  0  0  0  0  0  0  0  0  0  0
    4.4108    1.0509   -1.5529 H   0  0  0  0  0  0  0  0  0  0  0  0
    3.4900    3.7246   -0.5723 H   0  0  0  0  0  0  0  0  0  0  0  0
    2.8135    2.8028   -1.9982 H   0  0  0  0  0  0  0  0  0  0  0  0
    6.1744    3.9941   -0.6628 H   0  0  0  0  0  0  0  0  0  0  0  0
    7.8958    5.0487   -2.1302 H   0  0  0  0  0  0  0  0  0  0  0  0
    7.4719    5.2921   -4.5781 H   0  0  0  0  0  0  0  0  0  0  0  0
    5.3247    4.4802   -5.5586 H   0  0  0  0  0  0  0  0  0  0  0  0
    3.6053    3.4278   -4.0984 H   0  0  0  0  0  0  0  0  0  0  0  0
    4.5003   -0.9541   -0.4920 H   0  0  0  0  0  0  0  0  0  0  0  0
  1  2  1  0
  1 24  1  0
  1 25  1  0
  2  3  1  0
  2  6  1  0
  2 26  1  1
  3  4  2  0
  3  5  1  0
  5 27  1  0
  6  7  1  0
  6 28  1  0
  6 29  1  0
  7  8  1  0
  7 23  2  0
  8  9  2  0
  8 10  1  0
 10 11  2  0
 10 30  1  0
 11 12  1  0
 11 13  1  0
 12 31  1  0
 13 14  2  0
 13 23  1  0
 14 15  1  0
 15 16  1  0
 15 32  1  0
 16 17  1  0
 16 33  1  0
 16 34  1  0
 17 18  2  0
 17 22  1  0
 18 19  1  0
 18 35  1  0
 19 20  2  0
 19 36  1  0
 20 21  1  0
 20 37  1  0
 21 22  2  0
 21 38  1  0
 22 39  1  0
 23 40  1  0
M  END
