
     RDKit          3D

 18 18  0  0  0  0  0  0  0  0999 V2000
    0.2083   -0.0654   -0.2011 C   0  0  0  0  0  0  0  0  0  0  0  0
    1.5283   -0.0424   -0.6657 C   0  0  0  0  0  0  0  0  0  0  0  0
    1.8163    0.0122   -2.0136 C   0  0  0  0  0  0  0  0  0  0  0  0
    0.7682    0.0425   -2.9317 C   0  0  0  0  0  0  0  0  0  0  0  0
   -0.5430    0.0021   -2.5048 C   0  0  0  0  0  0  0  0  0  0  0  0
   -0.8422   -0.0664   -1.1410 C   0  0  0  0  0  0  0  0  0  0  0  0
   -2.1255   -0.1256   -0.7873 O   0  0  0  0  0  0  0  0  0  0  0  0
   -0.1413   -0.1025    1.2367 C   0  0  0  0  0  0  0  0  0  0  0  0
   -1.2953   -0.3215    1.6131 O   0  0  0  0  0  0  0  0  0  0  0  0
    0.8605    0.0927    2.1114 N   0  0  0  0  0  0  0  0  0  0  0  0
    0.5553    0.2256    3.4316 O   0  0  0  0  0  0  0  0  0  0  0  0
    2.3559   -0.0872    0.0298 H   0  0  0  0  0  0  0  0  0  0  0  0
    2.8440    0.0255   -2.3490 H   0  0  0  0  0  0  0  0  0  0  0  0
    0.9787    0.0883   -3.9924 H   0  0  0  0  0  0  0  0  0  0  0  0
   -1.3572    0.0132   -3.2181 H   0  0  0  0  0  0  0  0  0  0  0  0
   -2.1515   -0.2312    0.1939 H   0  0  0  0  0  0  0  0  0  0  0  0
    1.7250    0.5424    1.8478 H   0  0  0  0  0  0  0  0  0  0  0  0
    0.8039   -0.6110    3.8456 H   0  0  0  0  0  0  0  0  0  0  0  0
  1  2  2  0
  1  6  1  0
  1  8  1  0
  2  3  1  0
  2 12  1  0
  3  4  2  0
  3 13  1  0
  4  5  1  0
  4 14  1  0
  5  6  2  0
  5 15  1  0
  6  7  1  0
  7 16  1  0
  8  9  2  0
  8 10  1  0
 10 11  1  0
 10 17  1  0
 11 18  1  0
M  END
