
     RDKit          3D

 37 38  0  0  0  0  0  0  0  0999 V2000
   -0.9653    2.4343    0.0620 C   0  0  0  0  0  0  0  0  0  0  0  0
   -0.3754    1.2024    0.3155 C   0  0  0  0  0  0  0  0  0  0  0  0
    1.0162    1.1041    0.2671 C   0  0  0  0  0  0  0  0  0  0  0  0
    1.7275    2.2574   -0.0271 C   0  0  0  0  0  0  0  0  0  0  0  0
   -0.1660    3.5449   -0.2339 C   0  0  0  0  0  0  0  0  0  0  0  0
   -2.1429   -0.3098   -0.5295 N   0  0  0  0  0  0  0  0  0  0  0  0
   -3.0190   -1.4159   -0.2836 C   0  0  0  0  0  0  0  0  0  0  0  0
   -4.2135   -1.4001    0.4817 C   0  0  0  0  0  0  0  0  0  0  0  0
   -4.6961   -0.3218    1.0607 O   0  0  0  0  0  0  0  0  0  0  0  0
   -2.8985   -2.6973   -0.6846 C   0  0  0  0  0  0  0  0  0  0  0  0
   -3.9187   -3.3907   -0.2141 O   0  0  0  0  0  0  0  0  0  0  0  0
   -4.7485   -2.5830    0.5198 N   0  0  0  0  0  0  0  0  0  0  0  0
   -0.7815    4.8801   -0.5172 C   0  0  0  0  0  0  0  0  0  0  0  0
   -1.2591    0.0371    0.6440 C   0  0  0  0  0  0  0  0  0  0  0  0
    1.6920   -0.2122    0.5331 C   0  0  0  0  0  0  0  0  0  0  0  0
    1.1497    3.4287   -0.2685 N   0  0  0  0  0  0  0  0  0  0  0  0
   -2.3094    2.4815    0.1071 O   0  0  0  0  0  0  0  0  0  0  0  0
    5.4077   -0.6078    0.2324 O   0  0  0  0  0  0  0  0  0  0  0  0
    3.7774   -1.5885   -1.5134 O   0  0  0  0  0  0  0  0  0  0  0  0
    3.7354   -2.5603    0.8022 O   0  0  0  0  0  0  0  0  0  0  0  0
    3.0987   -0.0570    0.4267 O   0  0  0  0  0  0  0  0  0  0  0  0
    4.0003   -1.3244    0.0449 P   0  0  1  0  0  0  0  0  0  0  0  0
    2.8078    2.2450   -0.0761 H   0  0  0  0  0  0  0  0  0  0  0  0
   -1.5646   -0.4996   -1.3520 H   0  0  0  0  0  0  0  0  0  0  0  0
   -5.5230   -0.5089    1.5271 H   0  0  0  0  0  0  0  0  0  0  0  0
   -2.1648   -3.2137   -1.2856 H   0  0  0  0  0  0  0  0  0  0  0  0
   -1.3856    5.2376    0.3199 H   0  0  0  0  0  0  0  0  0  0  0  0
   -0.0006    5.6138   -0.7008 H   0  0  0  0  0  0  0  0  0  0  0  0
   -1.4245    4.8526   -1.4005 H   0  0  0  0  0  0  0  0  0  0  0  0
   -0.7102   -0.8672    0.8893 H   0  0  0  0  0  0  0  0  0  0  0  0
   -1.9214    0.2566    1.4802 H   0  0  0  0  0  0  0  0  0  0  0  0
    1.4454   -0.5709    1.5358 H   0  0  0  0  0  0  0  0  0  0  0  0
    1.3226   -0.9584   -0.1784 H   0  0  0  0  0  0  0  0  0  0  0  0
   -2.6583    3.3415   -0.1569 H   0  0  0  0  0  0  0  0  0  0  0  0
    6.1666   -1.2011    0.1460 H   0  0  0  0  0  0  0  0  0  0  0  0
    3.9850   -0.8503   -2.1024 H   0  0  0  0  0  0  0  0  0  0  0  0
   -2.6908    0.5203   -0.7877 H   0  0  0  0  0  0  0  0  0  0  0  0
  9  8  1  0
  8 12  2  0
  8  7  1  0
 12 11  1  0
  7  6  1  0
  7 10  2  0
  6 14  1  0
 13  5  1  0
 11 10  1  0
 17  1  1  0
 20 22  2  0
  5  1  2  0
  5 16  1  0
  1  2  1  0
 16  4  2  0
 22 21  1  1
 21 15  1  0
  2 14  1  0
  2  3  2  0
  4  3  1  0
  3 15  1  0
 22 18  1  0
 22 19  1  0
  4 23  1  0
  6 24  1  0
  9 25  1  0
 10 26  1  0
 13 27  1  0
 13 28  1  0
 13 29  1  0
 14 30  1  0
 14 31  1  0
 15 32  1  0
 15 33  1  0
 17 34  1  0
 18 35  1  0
 19 36  1  0
  6 37  1  0
M  CHG  1   6   1
M  END
