
     RDKit          3D

 62 62  0  0  0  0  0  0  0  0999 V2000
    7.5423   -4.0461   -0.8098 C   0  0  0  0  0  0  0  0  0  0  0  0
   -1.4108    2.0075    0.6577 C   0  0  0  0  0  0  0  0  0  0  0  0
   -3.2496    0.4441    0.9948 C   0  0  0  0  0  0  0  0  0  0  0  0
   -5.1150   -1.0015    1.0597 C   0  0  0  0  0  0  0  0  0  0  0  0
   -6.3408   -1.2485    0.2341 C   0  0  0  0  0  0  0  0  0  0  0  0
   -6.3769   -2.2889   -0.6888 C   0  0  0  0  0  0  0  0  0  0  0  0
   -7.5058   -2.5013   -1.4697 C   0  0  0  0  0  0  0  0  0  0  0  0
   -7.4520   -0.4185    0.3614 C   0  0  0  0  0  0  0  0  0  0  0  0
   -0.0864    1.1591   -0.2673 P   0  0  2  0  0  0  0  0  0  0  0  0
    2.5979    1.3497   -0.0531 C   0  0  1  0  0  0  0  0  0  0  0  0
    1.2954    1.7445    0.4376 N   0  0  0  0  0  0  0  0  0  0  0  0
   -0.1456    1.3334   -1.7436 O   0  0  0  0  0  0  0  0  0  0  0  0
    3.6308    2.4577    0.1813 C   0  0  0  0  0  0  0  0  0  0  0  0
    4.0829   -0.5674    0.0054 N   0  0  0  0  0  0  0  0  0  0  0  0
    2.5439   -0.3737    1.6359 O   0  0  0  0  0  0  0  0  0  0  0  0
    3.2337    3.8214   -0.3853 C   0  0  1  0  0  0  0  0  0  0  0  0
    8.1087   -5.2897   -0.3083 N   0  0  0  0  0  0  0  0  0  0  0  0
   -0.2685   -0.4177    0.0517 O   0  0  0  0  0  0  0  0  0  0  0  0
    4.3293    4.8387   -0.0812 C   0  0  0  0  0  0  0  0  0  0  0  0
   -2.6983    1.4695    0.3142 N   0  0  0  0  0  0  0  0  0  0  0  0
   -4.3838    0.0479    0.4127 O   0  0  0  0  0  0  0  0  0  0  0  0
    2.9539    3.7614   -1.8828 C   0  0  0  0  0  0  0  0  0  0  0  0
   -2.7945   -0.0420    2.0089 O   0  0  0  0  0  0  0  0  0  0  0  0
    3.0620    0.0479    0.6102 C   0  0  0  0  0  0  0  0  0  0  0  0
    4.6676   -1.7967    0.5052 C   0  0  0  0  0  0  0  0  0  0  0  0
    5.8008   -2.2579   -0.3956 C   0  0  0  0  0  0  0  0  0  0  0  0
    6.4157   -3.5630    0.0906 C   0  0  0  0  0  0  0  0  0  0  0  0
   -8.6087   -1.6688   -1.3369 C   0  0  0  0  0  0  0  0  0  0  0  0
   -8.5803   -0.6259   -0.4186 C   0  0  0  0  0  0  0  0  0  0  0  0
    8.3343   -3.2924   -0.8271 H   0  0  0  0  0  0  0  0  0  0  0  0
    7.1660   -4.1182   -1.8410 H   0  0  0  0  0  0  0  0  0  0  0  0
   -1.2444    1.9321    1.7331 H   0  0  0  0  0  0  0  0  0  0  0  0
   -1.3805    3.0677    0.4050 H   0  0  0  0  0  0  0  0  0  0  0  0
   -5.3847   -0.6985    2.0736 H   0  0  0  0  0  0  0  0  0  0  0  0
   -4.5029   -1.9030    1.1246 H   0  0  0  0  0  0  0  0  0  0  0  0
   -5.5186   -2.9415   -0.7969 H   0  0  0  0  0  0  0  0  0  0  0  0
   -7.5231   -3.3170   -2.1805 H   0  0  0  0  0  0  0  0  0  0  0  0
   -7.4381    0.3925    1.0800 H   0  0  0  0  0  0  0  0  0  0  0  0
    2.5103    1.1755   -1.1292 H   0  0  0  0  0  0  0  0  0  0  0  0
    1.2627    1.8915    1.4391 H   0  0  0  0  0  0  0  0  0  0  0  0
    3.8102    2.5527    1.2576 H   0  0  0  0  0  0  0  0  0  0  0  0
    4.5815    2.1479   -0.2631 H   0  0  0  0  0  0  0  0  0  0  0  0
    4.4352   -0.1929   -0.8616 H   0  0  0  0  0  0  0  0  0  0  0  0
    2.3187    4.1439    0.1207 H   0  0  0  0  0  0  0  0  0  0  0  0
    7.4186   -6.0267   -0.3895 H   0  0  0  0  0  0  0  0  0  0  0  0
    8.8777   -5.5743   -0.9014 H   0  0  0  0  0  0  0  0  0  0  0  0
   -0.0162   -0.6735    0.9484 H   0  0  0  0  0  0  0  0  0  0  0  0
    4.0571    5.8302   -0.4465 H   0  0  0  0  0  0  0  0  0  0  0  0
    4.5154    4.9195    0.9914 H   0  0  0  0  0  0  0  0  0  0  0  0
    5.2702    4.5561   -0.5600 H   0  0  0  0  0  0  0  0  0  0  0  0
   -3.1296    1.7771   -0.5428 H   0  0  0  0  0  0  0  0  0  0  0  0
    3.8244    3.3897   -2.4304 H   0  0  0  0  0  0  0  0  0  0  0  0
    2.1092    3.1125   -2.1176 H   0  0  0  0  0  0  0  0  0  0  0  0
    2.7185    4.7532   -2.2725 H   0  0  0  0  0  0  0  0  0  0  0  0
    5.0396   -1.6420    1.5215 H   0  0  0  0  0  0  0  0  0  0  0  0
    3.9000   -2.5740    0.5632 H   0  0  0  0  0  0  0  0  0  0  0  0
    5.4240   -2.3884   -1.4152 H   0  0  0  0  0  0  0  0  0  0  0  0
    6.5712   -1.4816   -0.4404 H   0  0  0  0  0  0  0  0  0  0  0  0
    5.6386   -4.3336    0.1403 H   0  0  0  0  0  0  0  0  0  0  0  0
    6.7986   -3.4401    1.1081 H   0  0  0  0  0  0  0  0  0  0  0  0
   -9.4898   -1.8340   -1.9434 H   0  0  0  0  0  0  0  0  0  0  0  0
   -9.4394    0.0228   -0.3077 H   0  0  0  0  0  0  0  0  0  0  0  0
 19 16  1  0
 16 22  1  0
 16 13  1  0
 17  1  1  0
  1 27  1  0
 13 10  1  0
 27 26  1  0
 26 25  1  0
 10 24  1  0
 10 11  1  0
 15 24  2  0
 24 14  1  0
 14 25  1  0
 11  9  1  0
  9 12  2  0
  9 18  1  6
  9  2  1  0
  2 20  1  0
 20  3  1  0
  3 23  2  0
  3 21  1  0
 21  4  1  0
  8 29  1  0
  8  5  2  0
 29 28  2  0
  4  5  1  0
  5  6  1  0
 28  7  1  0
  6  7  2  0
  1 30  1  0
  1 31  1  0
  2 32  1  0
  2 33  1  0
  4 34  1  0
  4 35  1  0
  6 36  1  0
  7 37  1  0
  8 38  1  0
 10 39  1  6
 11 40  1  0
 13 41  1  0
 13 42  1  0
 14 43  1  0
 16 44  1  1
 17 45  1  0
 17 46  1  0
 18 47  1  0
 19 48  1  0
 19 49  1  0
 19 50  1  0
 20 51  1  0
 22 52  1  0
 22 53  1  0
 22 54  1  0
 25 55  1  0
 25 56  1  0
 26 57  1  0
 26 58  1  0
 27 59  1  0
 27 60  1  0
 28 61  1  0
 29 62  1  0
M  END
