
     RDKit          3D

 32 33  0  0  0  0  0  0  0  0999 V2000
    0.4760   -1.6106   -0.1583 C   0  0  0  0  0  0  0  0  0  0  0  0
   -0.7396   -2.2685   -0.3232 C   0  0  0  0  0  0  0  0  0  0  0  0
   -1.9016   -1.5444   -0.5530 C   0  0  0  0  0  0  0  0  0  0  0  0
   -3.5068    0.6297    1.5283 O   0  0  0  0  0  0  0  0  0  0  0  0
   -4.9756    1.6426    0.1902 O   0  0  0  0  0  0  0  0  0  0  0  0
    3.7554    1.1269    1.2096 C   0  0  0  0  0  0  0  0  0  0  0  0
    4.1385    2.0318    0.2271 C   0  0  0  0  0  0  0  0  0  0  0  0
    3.3461    2.1937   -0.9005 C   0  0  0  0  0  0  0  0  0  0  0  0
    2.1803    1.4530   -1.0442 C   0  0  0  0  0  0  0  0  0  0  0  0
   -3.8667    0.9490    0.4246 C   0  0  0  0  0  0  0  0  0  0  0  0
   -1.8828   -0.1602   -0.6273 C   0  0  0  0  0  0  0  0  0  0  0  0
   -0.6613    0.4838   -0.4619 C   0  0  0  0  0  0  0  0  0  0  0  0
    0.5200   -0.2080   -0.2227 C   0  0  0  0  0  0  0  0  0  0  0  0
    1.6469   -2.2425    0.0398 O   0  0  0  0  0  0  0  0  0  0  0  0
    1.6567   -3.6540    0.1080 C   0  0  0  0  0  0  0  0  0  0  0  0
    1.7890    0.5382   -0.0669 C   0  0  0  0  0  0  0  0  0  0  0  0
    2.5932    0.3841    1.0633 C   0  0  0  0  0  0  0  0  0  0  0  0
   -0.8001   -3.3474   -0.2849 H   0  0  0  0  0  0  0  0  0  0  0  0
   -2.8331   -2.0831   -0.6819 H   0  0  0  0  0  0  0  0  0  0  0  0
   -5.4267    1.8368    1.0254 H   0  0  0  0  0  0  0  0  0  0  0  0
    4.3638    1.0012    2.0961 H   0  0  0  0  0  0  0  0  0  0  0  0
    5.0480    2.6073    0.3412 H   0  0  0  0  0  0  0  0  0  0  0  0
    3.6361    2.8928   -1.6743 H   0  0  0  0  0  0  0  0  0  0  0  0
    1.5714    1.5780   -1.9315 H   0  0  0  0  0  0  0  0  0  0  0  0
   -3.8291    0.0746   -1.5052 H   0  0  0  0  0  0  0  0  0  0  0  0
   -2.9274    1.5613   -1.3773 H   0  0  0  0  0  0  0  0  0  0  0  0
   -0.6222    1.5666   -0.5098 H   0  0  0  0  0  0  0  0  0  0  0  0
    1.0433   -4.0293    0.9312 H   0  0  0  0  0  0  0  0  0  0  0  0
    1.3151   -4.1125   -0.8239 H   0  0  0  0  0  0  0  0  0  0  0  0
    2.6896   -3.9453    0.2821 H   0  0  0  0  0  0  0  0  0  0  0  0
    2.3028   -0.3059    1.8450 H   0  0  0  0  0  0  0  0  0  0  0  0
   -3.1394    0.6228   -0.8570 C   0  0  0  0  0  0  0  0  0  0  0  0
  7  8  1  0
  7  6  2  0
  8  9  2  0
  6 17  1  0
  9 16  1  0
 17 16  2  0
 16 13  1  0
 13 12  1  0
 13  1  2  0
 14  1  1  0
 14 15  1  0
 12 11  2  0
  1  2  1  0
 11 32  1  0
 11  3  1  0
  2  3  2  0
  4 10  2  0
 32 10  1  0
 10  5  1  0
  2 18  1  0
  3 19  1  0
  5 20  1  0
  6 21  1  0
  7 22  1  0
  8 23  1  0
  9 24  1  0
 32 25  1  0
 32 26  1  0
 12 27  1  0
 15 28  1  0
 15 29  1  0
 15 30  1  0
 17 31  1  0
M  END
