
     RDKit          3D

 69 72  0  0  0  0  0  0  0  0999 V2000
    2.4563    4.3127   -0.2660 C   0  0  0  0  0  0  0  0  0  0  0  0
    1.3341    3.3243   -0.2268 C   0  0  0  0  0  0  0  0  0  0  0  0
    1.5398    1.9224   -0.2462 C   0  0  0  0  0  0  0  0  0  0  0  0
    2.8172    1.4502   -0.2888 N   0  0  0  0  0  0  0  0  0  0  0  0
    3.2824    0.1389   -0.2287 C   0  0  0  0  0  0  0  0  0  0  0  0
    2.5612   -0.9740   -0.6745 C   0  0  0  0  0  0  0  0  0  0  0  0
    3.1214   -2.2383   -0.5986 C   0  0  0  0  0  0  0  0  0  0  0  0
    4.3993   -2.4368   -0.0951 C   0  0  0  0  0  0  0  0  0  0  0  0
    5.1094   -1.3246    0.3237 C   0  0  0  0  0  0  0  0  0  0  0  0
    4.5689   -0.0506    0.2731 C   0  0  0  0  0  0  0  0  0  0  0  0
    6.7202   -1.5222    1.0439 S   0  0  1  0  0  0  0  0  0  0  0  0
    6.6812   -0.9630    2.3897 O   0  0  0  0  0  0  0  0  0  0  0  0
    7.0944   -2.9223    0.8900 O   0  0  0  0  0  0  0  0  0  0  0  0
    7.6643   -0.4995    0.1801 N   0  0  0  0  0  0  0  0  0  0  0  0
    8.3151   -0.8132   -1.1108 C   0  0  1  0  0  0  0  0  0  0  0  0
    7.3231   -1.4432   -2.0828 C   0  0  0  0  0  0  0  0  0  0  0  0
    8.7704    0.5372   -1.6615 C   0  0  0  0  0  0  0  0  0  0  0  0
    9.5273   -1.7247   -0.9154 C   0  0  0  0  0  0  0  0  0  0  0  0
    0.5345    1.0697   -0.2121 N   0  0  0  0  0  0  0  0  0  0  0  0
   -0.7034    1.5697   -0.1482 C   0  0  0  0  0  0  0  0  0  0  0  0
   -1.6791    0.6204   -0.1204 N   0  0  0  0  0  0  0  0  0  0  0  0
   -3.0647    0.7344   -0.0191 C   0  0  0  0  0  0  0  0  0  0  0  0
   -3.8182   -0.4035   -0.3049 C   0  0  0  0  0  0  0  0  0  0  0  0
   -5.2010   -0.4101   -0.1971 C   0  0  0  0  0  0  0  0  0  0  0  0
   -5.8713    0.7418    0.2012 C   0  0  0  0  0  0  0  0  0  0  0  0
   -7.2138    0.8405    0.3387 O   0  0  0  0  0  0  0  0  0  0  0  0
   -8.0051   -0.2952    0.0652 C   0  0  0  0  0  0  0  0  0  0  0  0
   -9.4482    0.0937    0.3473 C   0  0  0  0  0  0  0  0  0  0  0  0
  -10.3404   -1.0102    0.0831 N   0  0  0  0  0  0  0  0  0  0  0  0
  -10.6877   -1.9763    0.9803 C   0  0  0  0  0  0  0  0  0  0  0  0
  -11.4783   -2.8960    0.3385 C   0  0  0  0  0  0  0  0  0  0  0  0
  -11.6060   -2.4677   -1.0081 C   0  0  0  0  0  0  0  0  0  0  0  0
  -10.8877   -1.3052   -1.1304 C   0  0  0  0  0  0  0  0  0  0  0  0
   -5.1266    1.8832    0.4855 C   0  0  0  0  0  0  0  0  0  0  0  0
   -3.7462    1.8871    0.3822 C   0  0  0  0  0  0  0  0  0  0  0  0
   -1.0181    2.8539   -0.1154 N   0  0  0  0  0  0  0  0  0  0  0  0
    0.0149    3.6989   -0.1573 C   0  0  0  0  0  0  0  0  0  0  0  0
    3.1272    4.2107    0.5909 H   0  0  0  0  0  0  0  0  0  0  0  0
    3.0634    4.2112   -1.1686 H   0  0  0  0  0  0  0  0  0  0  0  0
    2.0680    5.3298   -0.2492 H   0  0  0  0  0  0  0  0  0  0  0  0
    3.5364    2.1494   -0.1912 H   0  0  0  0  0  0  0  0  0  0  0  0
    1.5704   -0.8542   -1.0800 H   0  0  0  0  0  0  0  0  0  0  0  0
    2.5497   -3.0880   -0.9470 H   0  0  0  0  0  0  0  0  0  0  0  0
    4.8229   -3.4295   -0.0473 H   0  0  0  0  0  0  0  0  0  0  0  0
    5.1444    0.8034    0.6111 H   0  0  0  0  0  0  0  0  0  0  0  0
    8.2346    0.0612    0.8045 H   0  0  0  0  0  0  0  0  0  0  0  0
    6.9902   -2.4301   -1.7615 H   0  0  0  0  0  0  0  0  0  0  0  0
    6.4476   -0.8109   -2.2296 H   0  0  0  0  0  0  0  0  0  0  0  0
    7.8131   -1.5684   -3.0486 H   0  0  0  0  0  0  0  0  0  0  0  0
    7.9239    1.2100   -1.8022 H   0  0  0  0  0  0  0  0  0  0  0  0
    9.4831    1.0194   -0.9893 H   0  0  0  0  0  0  0  0  0  0  0  0
    9.2625    0.4016   -2.6249 H   0  0  0  0  0  0  0  0  0  0  0  0
   10.0396   -1.8758   -1.8667 H   0  0  0  0  0  0  0  0  0  0  0  0
   10.2411   -1.2797   -0.2196 H   0  0  0  0  0  0  0  0  0  0  0  0
    9.2374   -2.7012   -0.5317 H   0  0  0  0  0  0  0  0  0  0  0  0
   -1.3276   -0.3185   -0.2292 H   0  0  0  0  0  0  0  0  0  0  0  0
   -3.3189   -1.3121   -0.6206 H   0  0  0  0  0  0  0  0  0  0  0  0
   -5.7287   -1.3240   -0.4345 H   0  0  0  0  0  0  0  0  0  0  0  0
   -7.8974   -0.6073   -0.9803 H   0  0  0  0  0  0  0  0  0  0  0  0
   -7.7166   -1.1408    0.6998 H   0  0  0  0  0  0  0  0  0  0  0  0
   -9.5610    0.3954    1.3889 H   0  0  0  0  0  0  0  0  0  0  0  0
   -9.7417    0.9390   -0.2759 H   0  0  0  0  0  0  0  0  0  0  0  0
  -10.3523   -1.9294    2.0044 H   0  0  0  0  0  0  0  0  0  0  0  0
  -11.9223   -3.7704    0.7874 H   0  0  0  0  0  0  0  0  0  0  0  0
  -12.1684   -2.9489   -1.7928 H   0  0  0  0  0  0  0  0  0  0  0  0
  -10.7279   -0.6615   -1.9809 H   0  0  0  0  0  0  0  0  0  0  0  0
   -5.6357    2.7858    0.8003 H   0  0  0  0  0  0  0  0  0  0  0  0
   -3.2038    2.7893    0.6135 H   0  0  0  0  0  0  0  0  0  0  0  0
   -0.2370    4.7551   -0.1320 H   0  0  0  0  0  0  0  0  0  0  0  0
 31 32  1  0
 31 30  2  0
 17 15  1  0
 32 33  2  0
 30 29  1  0
 33 29  1  0
 15 16  1  0
 15 18  1  0
 15 14  1  1
 29 28  1  0
 12 11  2  0
 11 14  1  6
 28 27  1  0
 11 13  2  0
 11  9  1  0
 27 26  1  0
  9  8  2  0
  9 10  1  0
  8  7  1  0
 26 25  1  0
 25 34  2  0
 25 24  1  0
 10  5  2  0
  7  6  2  0
 34 35  1  0
 24 23  2  0
 35 22  2  0
 23 22  1  0
  5  6  1  0
  5  4  1  0
 22 21  1  0
  4  3  1  0
 19  3  1  0
 19 20  2  0
 21 20  1  0
  3  2  2  0
 20 36  1  0
 36 37  2  0
  2 37  1  0
  2  1  1  0
  1 38  1  0
  1 39  1  0
  1 40  1  0
  4 41  1  0
  6 42  1  0
  7 43  1  0
  8 44  1  0
 10 45  1  0
 14 46  1  0
 16 47  1  0
 16 48  1  0
 16 49  1  0
 17 50  1  0
 17 51  1  0
 17 52  1  0
 18 53  1  0
 18 54  1  0
 18 55  1  0
 21 56  1  0
 23 57  1  0
 24 58  1  0
 27 59  1  0
 27 60  1  0
 28 61  1  0
 28 62  1  0
 30 63  1  0
 31 64  1  0
 32 65  1  0
 33 66  1  0
 34 67  1  0
 35 68  1  0
 37 69  1  0
M  END
