
     RDKit          3D

 57 59  0  0  0  0  0  0  0  0999 V2000
    8.7466    1.2057   -1.8524 C   0  0  0  0  0  0  0  0  0  0  0  0
   -7.9820    1.0371    0.7608 F   0  0  0  0  0  0  0  0  0  0  0  0
    7.1779    0.4754   -0.0978 N   0  0  0  0  0  0  0  0  0  0  0  0
    5.5442    1.7021   -1.0482 O   0  0  0  0  0  0  0  0  0  0  0  0
    8.2472    1.3884   -0.4167 C   0  0  1  0  0  0  0  0  0  0  0  0
   -7.1853   -0.8600    1.3406 F   0  0  0  0  0  0  0  0  0  0  0  0
    1.2759   -0.5888    0.3862 N   0  0  0  0  0  0  0  0  0  0  0  0
   -5.4169    1.3387    1.6840 O   0  0  0  0  0  0  0  0  0  0  0  0
    5.9059    0.6914   -0.4599 C   0  0  0  0  0  0  0  0  0  0  0  0
   -7.3888   -0.3792   -0.7500 F   0  0  0  0  0  0  0  0  0  0  0  0
    0.9614    0.6210    0.8882 N   0  0  0  0  0  0  0  0  0  0  0  0
    4.9247   -0.3795   -0.0919 C   0  0  0  0  0  0  0  0  0  0  0  0
   -4.3288    2.4834   -0.4117 F   0  0  0  0  0  0  0  0  0  0  0  0
    5.2985   -1.7015    0.1401 C   0  0  0  0  0  0  0  0  0  0  0  0
   -6.4477    2.6944   -0.5645 F   0  0  0  0  0  0  0  0  0  0  0  0
   10.2888    2.1209    0.6366 N   0  0  0  0  0  0  0  0  0  0  0  0
    4.3358   -2.6454    0.4614 C   0  0  0  0  0  0  0  0  0  0  0  0
   -5.4229    1.2911   -1.8300 F   0  0  0  0  0  0  0  0  0  0  0  0
    3.0010   -2.2868    0.5626 C   0  0  0  0  0  0  0  0  0  0  0  0
    2.6249   -0.9732    0.3027 C   0  0  0  0  0  0  0  0  0  0  0  0
    3.5826   -0.0241   -0.0289 C   0  0  0  0  0  0  0  0  0  0  0  0
   -0.3385    0.7227    0.8416 C   0  0  0  0  0  0  0  0  0  0  0  0
   -0.9213   -0.4467    0.2901 C   0  0  0  0  0  0  0  0  0  0  0  0
   -2.2427   -0.8597    0.0048 C   0  0  0  0  0  0  0  0  0  0  0  0
   -4.6404   -0.4654    0.2310 C   0  0  0  0  0  0  0  0  0  0  0  0
   -5.6254    0.6937    0.4693 C   0  0  1  0  0  0  0  0  0  0  0  0
   -7.0697    0.1249    0.4434 C   0  0  1  0  0  0  0  0  0  0  0  0
   -5.4545    1.8034   -0.5996 C   0  0  1  0  0  0  0  0  0  0  0  0
   -2.3952   -2.1018   -0.5899 C   0  0  0  0  0  0  0  0  0  0  0  0
   -1.2878   -2.9157   -0.9168 C   0  0  0  0  0  0  0  0  0  0  0  0
   -1.5460   -4.2371   -1.5812 C   0  0  0  0  0  0  0  0  0  0  0  0
    0.0035   -2.5235   -0.6311 C   0  0  0  0  0  0  0  0  0  0  0  0
    0.1633   -1.2789   -0.0066 C   0  0  0  0  0  0  0  0  0  0  0  0
    9.3888    1.1373    0.5651 C   0  0  0  0  0  0  0  0  0  0  0  0
    9.5384    1.9156   -2.0884 H   0  0  0  0  0  0  0  0  0  0  0  0
    9.1308    0.1963   -2.0010 H   0  0  0  0  0  0  0  0  0  0  0  0
    7.9316    1.3714   -2.5549 H   0  0  0  0  0  0  0  0  0  0  0  0
    7.4304   -0.3319    0.4523 H   0  0  0  0  0  0  0  0  0  0  0  0
    7.8902    2.4135   -0.2914 H   0  0  0  0  0  0  0  0  0  0  0  0
   -5.3153    0.6965    2.3978 H   0  0  0  0  0  0  0  0  0  0  0  0
   -3.0904    0.6304    1.0520 H   0  0  0  0  0  0  0  0  0  0  0  0
    6.3296   -2.0192    0.0556 H   0  0  0  0  0  0  0  0  0  0  0  0
   10.1888    2.9775    0.1190 H   0  0  0  0  0  0  0  0  0  0  0  0
   11.1144    2.0166    1.2041 H   0  0  0  0  0  0  0  0  0  0  0  0
    4.6271   -3.6698    0.6491 H   0  0  0  0  0  0  0  0  0  0  0  0
    2.2662   -3.0240    0.8564 H   0  0  0  0  0  0  0  0  0  0  0  0
    3.2818    0.9934   -0.2363 H   0  0  0  0  0  0  0  0  0  0  0  0
   -0.8220    1.6182    1.2024 H   0  0  0  0  0  0  0  0  0  0  0  0
   -4.8313   -0.9126   -0.7444 H   0  0  0  0  0  0  0  0  0  0  0  0
   -4.8367   -1.2469    0.9762 H   0  0  0  0  0  0  0  0  0  0  0  0
   -3.3822   -2.4806   -0.8222 H   0  0  0  0  0  0  0  0  0  0  0  0
   -2.0659   -4.1042   -2.5315 H   0  0  0  0  0  0  0  0  0  0  0  0
   -0.6197   -4.7749   -1.7774 H   0  0  0  0  0  0  0  0  0  0  0  0
   -2.1780   -4.8721   -0.9582 H   0  0  0  0  0  0  0  0  0  0  0  0
    0.8414   -3.1538   -0.8930 H   0  0  0  0  0  0  0  0  0  0  0  0
    9.4700    0.0946    1.1987 O   0  0  0  0  0  0  0  0  0  0  0  0
   -3.2792   -0.0054    0.2918 N   0  0  0  0  0  0  0  0  0  0  0  0
  1  5  1  0
 27  2  1  1
  3  5  1  0
  3  9  1  0
  4  9  2  0
  5 34  1  0
  6 27  1  0
  7 11  1  0
  7 20  1  0
  7 33  1  0
 26  8  1  1
  9 12  1  0
 10 27  1  0
 11 22  2  0
 56 34  2  0
 12 14  2  0
 12 21  1  0
 28 13  1  1
 57 24  1  0
 57 25  1  0
 14 17  1  0
 15 28  1  0
 16 34  1  0
 17 19  2  0
 18 28  1  0
 19 20  1  0
 20 21  2  0
 22 23  1  0
 23 24  1  0
 23 33  2  0
 24 29  2  0
 25 26  1  0
 26 27  1  0
 26 28  1  0
 29 30  1  0
 30 31  1  0
 30 32  2  0
 32 33  1  0
  1 35  1  0
  1 36  1  0
  1 37  1  0
  3 38  1  0
  5 39  1  6
  8 40  1  0
 57 41  1  0
 14 42  1  0
 16 43  1  0
 16 44  1  0
 17 45  1  0
 19 46  1  0
 21 47  1  0
 22 48  1  0
 25 49  1  0
 25 50  1  0
 29 51  1  0
 31 52  1  0
 31 53  1  0
 31 54  1  0
 32 55  1  0
M  END
