
     RDKit          3D

101104  0  0  0  0  0  0  0  0999 V2000
   -1.0932   -5.4028   -1.6279 C   0  0  1  0  0  0  0  0  0  0  0  0
   -2.3738   -4.6155   -1.8483 C   0  0  1  0  0  0  0  0  0  0  0  0
   -3.3311   -5.2762   -2.8248 C   0  0  0  0  0  0  0  0  0  0  0  0
   -0.2489   -4.7554   -0.5446 C   0  0  1  0  0  0  0  0  0  0  0  0
   -1.0940   -4.5767    0.7261 C   0  0  2  0  0  0  0  0  0  0  0  0
   -2.3395   -3.7675    0.3693 C   0  0  1  0  0  0  0  0  0  0  0  0
   -1.9372   -2.4969   -0.0556 O   0  0  0  0  0  0  0  0  0  0  0  0
   -2.5568   -1.3457    0.4594 C   0  0  1  0  0  0  0  0  0  0  0  0
   -1.4947   -0.2444    0.3984 C   0  0  1  0  0  0  0  0  0  0  0  0
   -2.0244    1.0662    0.9668 C   0  0  2  0  0  0  0  0  0  0  0  0
    0.8883   -0.4777    0.5300 C   0  0  2  0  0  0  0  0  0  0  0  0
    1.8714    0.1847    1.4901 C   0  0  1  0  0  0  0  0  0  0  0  0
    3.2065   -0.3080    0.9434 C   0  0  1  0  0  0  0  0  0  0  0  0
    2.8521   -1.7394    0.5248 C   0  0  1  0  0  0  0  0  0  0  0  0
    3.1925   -2.7502    1.6014 C   0  0  0  0  0  0  0  0  0  0  0  0
    4.4209    1.4935   -0.0051 C   0  0  1  0  0  0  0  0  0  0  0  0
    4.1269    2.5708   -1.0460 C   0  0  1  0  0  0  0  0  0  0  0  0
    5.1654    3.6915   -0.9150 C   0  0  2  0  0  0  0  0  0  0  0  0
    6.5866    3.0961   -0.9671 C   0  0  1  0  0  0  0  0  0  0  0  0
    6.7189    1.9960    0.0865 C   0  0  2  0  0  0  0  0  0  0  0  0
    8.0705    1.3097    0.0765 C   0  0  0  0  0  0  0  0  0  0  0  0
   -6.2555    4.5794    0.9689 C   0  0  0  0  0  0  0  0  0  0  0  0
   -4.1028    3.8024   -0.0253 C   0  0  0  0  0  0  0  0  0  0  0  0
   -7.0302    5.6811    1.6769 C   0  0  0  0  0  0  0  0  0  0  0  0
   -4.7922    4.9517    0.7088 C   0  0  1  0  0  0  0  0  0  0  0  0
   -3.2751    1.4922    0.2002 C   0  0  1  0  0  0  0  0  0  0  0  0
   -4.3256    0.3905    0.2361 C   0  0  0  0  0  0  0  0  0  0  0  0
   -3.7904   -0.9154   -0.3413 C   0  0  2  0  0  0  0  0  0  0  0  0
   -1.4088   -6.7112   -1.2474 F   0  0  0  0  0  0  0  0  0  0  0  0
    8.1708    0.3552    1.1715 N   0  0  0  0  0  0  0  0  0  0  0  0
   -0.4311   -3.9633    1.8573 N   0  0  0  0  0  0  0  0  0  0  0  0
    4.2266    2.0201   -2.3948 N   0  0  0  0  0  0  0  0  0  0  0  0
   -8.3712    5.2188    2.0105 N   0  0  0  0  0  0  0  0  0  0  0  0
   -4.4499   -4.3940   -3.1070 N   0  0  0  0  0  0  0  0  0  0  0  0
   -3.7817    2.7396    0.7315 N   0  0  0  0  0  0  0  0  0  0  0  0
   -4.8324   -1.9260   -0.2780 N   0  0  0  0  0  0  0  0  0  0  0  0
   -0.3534   -0.6419    1.1230 O   0  0  0  0  0  0  0  0  0  0  0  0
   -1.0036    2.0340    0.8571 O   0  0  0  0  0  0  0  0  0  0  0  0
    1.7767    1.5719    1.5498 O   0  0  0  0  0  0  0  0  0  0  0  0
    1.4542   -1.7358    0.2433 O   0  0  0  0  0  0  0  0  0  0  0  0
    2.9204   -4.0536    1.1275 O   0  0  0  0  0  0  0  0  0  0  0  0
    3.5667    0.4216   -0.2090 O   0  0  0  0  0  0  0  0  0  0  0  0
   -4.6484    6.1359   -0.0232 O   0  0  0  0  0  0  0  0  0  0  0  0
    5.7292    1.0013   -0.1285 O   0  0  0  0  0  0  0  0  0  0  0  0
    0.9020   -5.5302   -0.3264 O   0  0  0  0  0  0  0  0  0  0  0  0
    6.8813    2.6385   -2.2634 O   0  0  0  0  0  0  0  0  0  0  0  0
    4.9157    4.3562    0.3001 O   0  0  0  0  0  0  0  0  0  0  0  0
   -3.0710   -4.4151   -0.6309 O   0  0  0  0  0  0  0  0  0  0  0  0
   -0.5348   -5.4644   -2.5674 H   0  0  0  0  0  0  0  0  0  0  0  0
   -2.0717   -3.6517   -2.2824 H   0  0  0  0  0  0  0  0  0  0  0  0
   -2.7558   -5.5627   -3.7163 H   0  0  0  0  0  0  0  0  0  0  0  0
   -3.7161   -6.2015   -2.3914 H   0  0  0  0  0  0  0  0  0  0  0  0
    0.0257   -3.7616   -0.9212 H   0  0  0  0  0  0  0  0  0  0  0  0
   -1.4429   -5.5622    1.0522 H   0  0  0  0  0  0  0  0  0  0  0  0
   -3.0026   -3.6994    1.2387 H   0  0  0  0  0  0  0  0  0  0  0  0
   -2.8623   -1.5127    1.5034 H   0  0  0  0  0  0  0  0  0  0  0  0
   -1.2334   -0.0833   -0.6579 H   0  0  0  0  0  0  0  0  0  0  0  0
   -2.2911    0.9069    2.0230 H   0  0  0  0  0  0  0  0  0  0  0  0
    0.7943    0.1099   -0.3955 H   0  0  0  0  0  0  0  0  0  0  0  0
    1.7220   -0.2714    2.4825 H   0  0  0  0  0  0  0  0  0  0  0  0
    4.0095   -0.2856    1.6880 H   0  0  0  0  0  0  0  0  0  0  0  0
    3.3989   -2.0041   -0.3867 H   0  0  0  0  0  0  0  0  0  0  0  0
    4.2576   -2.6435    1.8365 H   0  0  0  0  0  0  0  0  0  0  0  0
    2.6324   -2.5308    2.5186 H   0  0  0  0  0  0  0  0  0  0  0  0
    4.2816    1.9278    0.9955 H   0  0  0  0  0  0  0  0  0  0  0  0
    3.1307    2.9746   -0.8224 H   0  0  0  0  0  0  0  0  0  0  0  0
    5.0484    4.3772   -1.7677 H   0  0  0  0  0  0  0  0  0  0  0  0
    7.3084    3.8870   -0.7235 H   0  0  0  0  0  0  0  0  0  0  0  0
    6.5789    2.4497    1.0799 H   0  0  0  0  0  0  0  0  0  0  0  0
    8.2471    0.8706   -0.9132 H   0  0  0  0  0  0  0  0  0  0  0  0
    8.8331    2.0800    0.2181 H   0  0  0  0  0  0  0  0  0  0  0  0
   -6.7449    4.3313    0.0201 H   0  0  0  0  0  0  0  0  0  0  0  0
   -6.5158    5.9357    2.6080 H   0  0  0  0  0  0  0  0  0  0  0  0
   -7.0233    6.5873    1.0597 H   0  0  0  0  0  0  0  0  0  0  0  0
   -4.2980    5.1120    1.6732 H   0  0  0  0  0  0  0  0  0  0  0  0
   -2.9898    1.6819   -0.8369 H   0  0  0  0  0  0  0  0  0  0  0  0
   -4.6641    0.2229    1.2646 H   0  0  0  0  0  0  0  0  0  0  0  0
   -5.1991    0.7120   -0.3366 H   0  0  0  0  0  0  0  0  0  0  0  0
   -3.4576   -0.7183   -1.3741 H   0  0  0  0  0  0  0  0  0  0  0  0
    7.5359   -0.4137    0.9987 H   0  0  0  0  0  0  0  0  0  0  0  0
    9.0961   -0.0543    1.1697 H   0  0  0  0  0  0  0  0  0  0  0  0
    0.3095   -4.5651    2.1926 H   0  0  0  0  0  0  0  0  0  0  0  0
    0.0079   -3.0970    1.5735 H   0  0  0  0  0  0  0  0  0  0  0  0
    3.6491    1.1933   -2.4843 H   0  0  0  0  0  0  0  0  0  0  0  0
    3.8590    2.6924   -3.0574 H   0  0  0  0  0  0  0  0  0  0  0  0
   -8.8614    5.9536    2.5047 H   0  0  0  0  0  0  0  0  0  0  0  0
   -8.8959    5.0754    1.1557 H   0  0  0  0  0  0  0  0  0  0  0  0
   -4.1326   -3.6102   -3.6641 H   0  0  0  0  0  0  0  0  0  0  0  0
   -5.1277   -4.8822   -3.6776 H   0  0  0  0  0  0  0  0  0  0  0  0
   -4.0380    2.7585    1.7083 H   0  0  0  0  0  0  0  0  0  0  0  0
   -5.6665   -1.5597   -0.7213 H   0  0  0  0  0  0  0  0  0  0  0  0
   -4.5721   -2.7377   -0.8278 H   0  0  0  0  0  0  0  0  0  0  0  0
   -1.3114    2.8505    1.2668 H   0  0  0  0  0  0  0  0  0  0  0  0
    0.8446    1.8198    1.4389 H   0  0  0  0  0  0  0  0  0  0  0  0
    3.1578   -4.6797    1.8190 H   0  0  0  0  0  0  0  0  0  0  0  0
   -4.7453    5.9153   -0.9583 H   0  0  0  0  0  0  0  0  0  0  0  0
    1.5563   -4.9704    0.1193 H   0  0  0  0  0  0  0  0  0  0  0  0
    6.0710    2.1740   -2.5650 H   0  0  0  0  0  0  0  0  0  0  0  0
    5.5573    5.0669    0.3982 H   0  0  0  0  0  0  0  0  0  0  0  0
   -6.2920    3.6776    1.5865 H   0  0  0  0  0  0  0  0  0  0  0  0
   -3.9044    3.8703   -1.2292 O   0  0  0  0  0  0  0  0  0  0  0  0
 34  3  1  0
  3  2  1  0
 36 28  1  0
  2  1  1  0
  2 48  1  0
  1 29  1  0
  1  4  1  0
 28 27  1  0
 28  8  1  0
 27 26  1  0
  4 45  1  0
  4  5  1  0
 48  6  1  0
  7  8  1  0
  7  6  1  0
 43 25  1  0
  8  9  1  0
101 23  2  0
 25 23  1  0
 25 22  1  0
 23 35  1  0
  6  5  1  0
 35 26  1  0
 26 10  1  0
  5 31  1  0
 24 22  1  0
 24 33  1  0
  9 10  1  0
  9 37  1  0
 10 38  1  0
 37 11  1  0
 11 40  1  0
 11 12  1  0
 40 14  1  0
 41 15  1  0
 15 14  1  0
 12 39  1  0
 12 13  1  0
 14 13  1  0
 13 42  1  0
 42 16  1  0
 16 44  1  0
 16 17  1  0
 44 20  1  0
 30 21  1  0
 32 17  1  0
 17 18  1  0
 21 20  1  0
 20 19  1  0
 46 19  1  0
 18 19  1  0
 18 47  1  0
  1 49  1  6
  2 50  1  6
  3 51  1  0
  3 52  1  0
  4 53  1  6
  5 54  1  1
  6 55  1  1
  8 56  1  1
  9 57  1  6
 10 58  1  1
 11 59  1  6
 12 60  1  1
 13 61  1  1
 14 62  1  6
 15 63  1  0
 15 64  1  0
 16 65  1  1
 17 66  1  1
 18 67  1  6
 19 68  1  1
 20 69  1  1
 21 70  1  0
 21 71  1  0
 22100  1  0
 22 72  1  0
 24 73  1  0
 24 74  1  0
 25 75  1  1
 26 76  1  6
 27 77  1  0
 27 78  1  0
 28 79  1  6
 30 80  1  0
 30 81  1  0
 31 82  1  0
 31 83  1  0
 32 84  1  0
 32 85  1  0
 33 86  1  0
 33 87  1  0
 34 88  1  0
 34 89  1  0
 35 90  1  0
 36 91  1  0
 36 92  1  0
 38 93  1  0
 39 94  1  0
 41 95  1  0
 43 96  1  0
 45 97  1  0
 46 98  1  0
 47 99  1  0
M  END
