
     RDKit          3D

 27 27  0  0  0  0  0  0  0  0999 V2000
   -6.1449    0.8307    0.0264 C   0  0  0  0  0  0  0  0  0  0  0  0
   -5.0712   -0.2481    0.0493 C   0  0  0  0  0  0  0  0  0  0  0  0
   -3.6865    0.3583   -0.0334 C   0  0  0  0  0  0  0  0  0  0  0  0
   -2.7362   -0.7010    0.0115 O   0  0  0  0  0  0  0  0  0  0  0  0
   -1.4314   -0.4207   -0.0131 C   0  0  0  0  0  0  0  0  0  0  0  0
   -0.9037    0.8661   -0.1170 C   0  0  0  0  0  0  0  0  0  0  0  0
    0.4712    1.0498   -0.1324 C   0  0  0  0  0  0  0  0  0  0  0  0
    1.3168   -0.0427   -0.0414 C   0  0  0  0  0  0  0  0  0  0  0  0
    3.0623    0.1762   -0.0549 S   0  0  1  0  0  0  0  0  0  0  0  0
    3.6896   -0.9082   -0.7985 O   0  0  0  0  0  0  0  0  0  0  0  0
    3.3461    1.5453   -0.4672 O   0  0  0  0  0  0  0  0  0  0  0  0
    3.4347   -0.1062    1.5320 N   0  0  0  0  0  0  0  0  0  0  0  0
    0.7978   -1.3326    0.0604 C   0  0  0  0  0  0  0  0  0  0  0  0
   -0.5653   -1.5195    0.0724 C   0  0  0  0  0  0  0  0  0  0  0  0
   -7.1391    0.3883    0.0761 H   0  0  0  0  0  0  0  0  0  0  0  0
   -6.0431    1.5114    0.8727 H   0  0  0  0  0  0  0  0  0  0  0  0
   -6.0938    1.4251   -0.8871 H   0  0  0  0  0  0  0  0  0  0  0  0
   -5.1550   -0.8372    0.9658 H   0  0  0  0  0  0  0  0  0  0  0  0
   -5.2162   -0.9359   -0.7872 H   0  0  0  0  0  0  0  0  0  0  0  0
   -3.5754    0.9278   -0.9632 H   0  0  0  0  0  0  0  0  0  0  0  0
   -3.5207    1.0493    0.8009 H   0  0  0  0  0  0  0  0  0  0  0  0
   -1.5424    1.7350   -0.1871 H   0  0  0  0  0  0  0  0  0  0  0  0
    0.8658    2.0532   -0.2162 H   0  0  0  0  0  0  0  0  0  0  0  0
    3.1404    0.6490    2.1431 H   0  0  0  0  0  0  0  0  0  0  0  0
    4.4276   -0.2846    1.6527 H   0  0  0  0  0  0  0  0  0  0  0  0
    1.4528   -2.1909    0.1309 H   0  0  0  0  0  0  0  0  0  0  0  0
   -0.9774   -2.5174    0.1497 H   0  0  0  0  0  0  0  0  0  0  0  0
  2  3  1  0
  2  1  1  0
  3  4  1  0
  4  5  1  0
  5 14  2  0
  5  6  1  0
 14 13  1  0
  6  7  2  0
 13  8  2  0
  7  8  1  0
  8  9  1  0
  9 12  1  1
 11  9  2  0
  9 10  2  0
  1 15  1  0
  1 16  1  0
  1 17  1  0
  2 18  1  0
  2 19  1  0
  3 20  1  0
  3 21  1  0
  6 22  1  0
  7 23  1  0
 12 24  1  0
 12 25  1  0
 13 26  1  0
 14 27  1  0
M  END
