
     RDKit          3D

 71 75  0  0  0  0  0  0  0  0999 V2000
   -2.8647    1.4190    1.0816 C   0  0  0  0  0  0  0  0  0  0  0  0
   -2.3740    2.7000    1.3471 C   0  0  0  0  0  0  0  0  0  0  0  0
   -1.0096    2.8451    1.2176 C   0  0  0  0  0  0  0  0  0  0  0  0
   -0.1885    1.8628    0.8686 N   0  0  0  0  0  0  0  0  0  0  0  0
   -2.0706    0.4265    0.7343 N   0  0  0  0  0  0  0  0  0  0  0  0
    9.6067   -0.5040   -0.8873 C   0  0  0  0  0  0  0  0  0  0  0  0
   10.0327    0.5271   -1.9290 C   0  0  0  0  0  0  0  0  0  0  0  0
    9.2140    1.7839   -1.5656 C   0  0  0  0  0  0  0  0  0  0  0  0
    8.3073    1.3331   -0.4155 C   0  0  0  0  0  0  0  0  0  0  0  0
    8.2491   -0.1116   -0.5544 N   0  0  0  0  0  0  0  0  0  0  0  0
    7.7252   -0.8081    0.5951 C   0  0  0  0  0  0  0  0  0  0  0  0
    6.2660   -0.5220    0.8677 C   0  0  0  0  0  0  0  0  0  0  0  0
    4.1435   -0.7710   -0.1049 C   0  0  0  0  0  0  0  0  0  0  0  0
    3.5448    0.4292   -0.4883 C   0  0  0  0  0  0  0  0  0  0  0  0
    4.3611    1.5473   -1.0682 C   0  0  0  0  0  0  0  0  0  0  0  0
    2.1679    0.5719   -0.3538 C   0  0  0  0  0  0  0  0  0  0  0  0
    3.3814   -1.8308    0.3880 C   0  0  0  0  0  0  0  0  0  0  0  0
    4.0257   -3.1374    0.7502 C   0  0  0  0  0  0  0  0  0  0  0  0
    2.0099   -1.6574    0.5218 C   0  0  0  0  0  0  0  0  0  0  0  0
    1.3928   -0.4591    0.1687 C   0  0  0  0  0  0  0  0  0  0  0  0
   -0.7636    0.6863    0.6429 C   0  0  0  0  0  0  0  0  0  0  0  0
   -4.2163    1.1228    1.1672 N   0  0  0  0  0  0  0  0  0  0  0  0
   -4.7836   -0.0832    0.8261 C   0  0  0  0  0  0  0  0  0  0  0  0
   -5.2137    1.9725    1.6039 C   0  0  0  0  0  0  0  0  0  0  0  0
   -6.4034    1.3123    1.5422 C   0  0  0  0  0  0  0  0  0  0  0  0
   -7.7360    1.8538    1.9396 C   0  0  0  0  0  0  0  0  0  0  0  0
   -6.1267   -0.0053    1.0437 C   0  0  0  0  0  0  0  0  0  0  0  0
   -7.1253   -1.0807    0.7549 C   0  0  0  0  0  0  0  0  0  0  0  0
   -7.3093   -1.2585   -0.6673 N   0  0  0  0  0  0  0  0  0  0  0  0
   -8.3775   -2.1598   -1.1085 C   0  0  0  0  0  0  0  0  0  0  0  0
   -7.9078   -0.1537   -1.4209 C   0  0  0  0  0  0  0  0  0  0  0  0
   -8.7119   -1.1696   -2.2386 C   0  0  1  0  0  0  0  0  0  0  0  0
   -8.0888   -1.4328   -3.4676 O   0  0  0  0  0  0  0  0  0  0  0  0
   -2.9945    3.5364    1.6256 H   0  0  0  0  0  0  0  0  0  0  0  0
   -0.5516    3.8097    1.4061 H   0  0  0  0  0  0  0  0  0  0  0  0
   10.2706   -0.4518   -0.0067 H   0  0  0  0  0  0  0  0  0  0  0  0
   11.1077    0.7028   -1.9056 H   0  0  0  0  0  0  0  0  0  0  0  0
    9.7822    0.1827   -2.9329 H   0  0  0  0  0  0  0  0  0  0  0  0
    9.8455    2.6178   -1.2605 H   0  0  0  0  0  0  0  0  0  0  0  0
    8.6266    2.1258   -2.4179 H   0  0  0  0  0  0  0  0  0  0  0  0
    8.7472    1.6244    0.5538 H   0  0  0  0  0  0  0  0  0  0  0  0
    7.3136    1.7809   -0.4658 H   0  0  0  0  0  0  0  0  0  0  0  0
    7.8513   -1.8836    0.4390 H   0  0  0  0  0  0  0  0  0  0  0  0
    8.2822   -0.5580    1.5161 H   0  0  0  0  0  0  0  0  0  0  0  0
    5.9646   -1.0690    1.7687 H   0  0  0  0  0  0  0  0  0  0  0  0
    6.1055    0.5418    1.0754 H   0  0  0  0  0  0  0  0  0  0  0  0
    5.0880    1.1839   -1.7938 H   0  0  0  0  0  0  0  0  0  0  0  0
    3.7227    2.2776   -1.5631 H   0  0  0  0  0  0  0  0  0  0  0  0
    4.9198    2.0805   -0.2963 H   0  0  0  0  0  0  0  0  0  0  0  0
    1.7042    1.4950   -0.6677 H   0  0  0  0  0  0  0  0  0  0  0  0
    4.7964   -3.0182    1.5125 H   0  0  0  0  0  0  0  0  0  0  0  0
    3.2872   -3.8371    1.1377 H   0  0  0  0  0  0  0  0  0  0  0  0
    4.5027   -3.6006   -0.1144 H   0  0  0  0  0  0  0  0  0  0  0  0
    1.4105   -2.4719    0.9142 H   0  0  0  0  0  0  0  0  0  0  0  0
   -4.1825   -0.8944    0.4526 H   0  0  0  0  0  0  0  0  0  0  0  0
   -5.0040    2.9746    1.9381 H   0  0  0  0  0  0  0  0  0  0  0  0
   -8.4504    1.8142    1.1155 H   0  0  0  0  0  0  0  0  0  0  0  0
   -8.1706    1.2838    2.7626 H   0  0  0  0  0  0  0  0  0  0  0  0
   -7.6596    2.8920    2.2609 H   0  0  0  0  0  0  0  0  0  0  0  0
   -6.7923   -2.0338    1.1752 H   0  0  0  0  0  0  0  0  0  0  0  0
   -8.0784   -0.8380    1.2547 H   0  0  0  0  0  0  0  0  0  0  0  0
   -8.0588   -3.1671   -1.3917 H   0  0  0  0  0  0  0  0  0  0  0  0
   -9.2040   -2.2395   -0.3885 H   0  0  0  0  0  0  0  0  0  0  0  0
   -8.5695    0.4801   -0.8156 H   0  0  0  0  0  0  0  0  0  0  0  0
   -7.2098    0.4883   -1.9646 H   0  0  0  0  0  0  0  0  0  0  0  0
   -9.7751   -0.9442   -2.3620 H   0  0  0  0  0  0  0  0  0  0  0  0
   -8.5396   -2.1772   -3.8784 H   0  0  0  0  0  0  0  0  0  0  0  0
    0.0018   -0.3812    0.2988 N   0  0  0  0  0  0  0  0  0  0  0  0
    5.4923   -0.9334   -0.2525 O   0  0  0  0  0  0  0  0  0  0  0  0
    9.6380   -1.5317   -1.2561 H   0  0  0  0  0  0  0  0  0  0  0  0
   -0.4964   -1.2581    0.2866 H   0  0  0  0  0  0  0  0  0  0  0  0
 18 17  1  0
 12 11  1  0
 12 69  1  0
 19 17  2  0
 19 20  1  0
 10 11  1  0
 10  6  1  0
 10  9  1  0
 17 13  1  0
 68 20  1  0
 68 21  1  0
  6  7  1  0
 20 16  2  0
  7  8  1  0
  9  8  1  0
 13 69  1  0
 13 14  2  0
  4 21  2  0
  4  3  1  0
 21  5  1  0
 16 14  1  0
  3  2  2  0
 14 15  1  0
  5  1  2  0
  2  1  1  0
  1 22  1  0
 22 23  1  0
 22 24  1  0
 23 27  2  0
 24 25  2  0
 27 25  1  0
 27 28  1  0
 25 26  1  0
 28 29  1  0
 31 32  1  0
 31 29  1  0
 32 30  1  0
 32 33  1  0
 29 30  1  0
  2 34  1  0
  3 35  1  0
  6 70  1  0
  6 36  1  0
  7 37  1  0
  7 38  1  0
  8 39  1  0
  8 40  1  0
  9 41  1  0
  9 42  1  0
 11 43  1  0
 11 44  1  0
 12 45  1  0
 12 46  1  0
 15 47  1  0
 15 48  1  0
 15 49  1  0
 16 50  1  0
 18 51  1  0
 18 52  1  0
 18 53  1  0
 19 54  1  0
 68 71  1  0
 23 55  1  0
 24 56  1  0
 26 57  1  0
 26 58  1  0
 26 59  1  0
 28 60  1  0
 28 61  1  0
 30 62  1  0
 30 63  1  0
 31 64  1  0
 31 65  1  0
 32 66  1  6
 33 67  1  0
M  END
