
     RDKit          3D

 28 28  0  0  0  0  0  0  0  0999 V2000
    0.4798    1.0715   -0.1297 C   0  0  1  0  0  0  0  0  0  0  0  0
    1.1205   -0.2967   -0.3477 C   0  0  2  0  0  0  0  0  0  0  0  0
    0.4219   -1.4446    0.3965 C   0  0  2  0  0  0  0  0  0  0  0  0
   -1.0792   -1.4543    0.1034 C   0  0  1  0  0  0  0  0  0  0  0  0
   -1.7019   -0.0930    0.3960 C   0  0  1  0  0  0  0  0  0  0  0  0
   -1.0210    0.9979   -0.4174 C   0  0  1  0  0  0  0  0  0  0  0  0
    2.6240   -0.3021   -0.1034 C   0  0  0  0  0  0  0  0  0  0  0  0
    3.2385    0.5658   -1.0308 O   0  0  0  0  0  0  0  0  0  0  0  0
    0.7381    1.5310    1.1760 O   0  0  0  0  0  0  0  0  0  0  0  0
   -1.6618    2.2205   -0.0937 O   0  0  0  0  0  0  0  0  0  0  0  0
   -3.0788   -0.1838    0.0856 O   0  0  0  0  0  0  0  0  0  0  0  0
    0.5887   -1.3911    1.8428 N   0  0  0  0  0  0  0  0  0  0  0  0
    0.9153    1.7664   -0.8644 H   0  0  0  0  0  0  0  0  0  0  0  0
    0.9875   -0.5224   -1.4121 H   0  0  0  0  0  0  0  0  0  0  0  0
    0.8351   -2.3747   -0.0244 H   0  0  0  0  0  0  0  0  0  0  0  0
   -1.5485   -2.1926    0.7730 H   0  0  0  0  0  0  0  0  0  0  0  0
   -1.5574    0.1173    1.4633 H   0  0  0  0  0  0  0  0  0  0  0  0
   -1.1473    0.7731   -1.4843 H   0  0  0  0  0  0  0  0  0  0  0  0
    2.8551    0.0033    0.9234 H   0  0  0  0  0  0  0  0  0  0  0  0
    2.9902   -1.3319   -0.2210 H   0  0  0  0  0  0  0  0  0  0  0  0
    4.1696    0.6358   -0.8029 H   0  0  0  0  0  0  0  0  0  0  0  0
    0.2093    2.3260    1.3050 H   0  0  0  0  0  0  0  0  0  0  0  0
   -1.5064    2.8501   -0.8048 H   0  0  0  0  0  0  0  0  0  0  0  0
   -3.4403    0.7090    0.0867 H   0  0  0  0  0  0  0  0  0  0  0  0
    0.4265   -2.3141    2.2252 H   0  0  0  0  0  0  0  0  0  0  0  0
    1.5384   -1.1539    2.0919 H   0  0  0  0  0  0  0  0  0  0  0  0
   -1.2649   -1.8323   -1.2430 O   0  0  0  0  0  0  0  0  0  0  0  0
   -2.1957   -1.7097   -1.4591 H   0  0  0  0  0  0  0  0  0  0  0  0
  8  7  1  0
  7  2  1  0
  2  3  1  0
  2  1  1  0
  3  4  1  0
  3 12  1  0
  4  5  1  0
  1  6  1  0
  1  9  1  0
  6  5  1  0
  6 10  1  0
  5 11  1  0
  1 13  1  6
  2 14  1  6
  3 15  1  6
  4 16  1  1
  5 17  1  1
  6 18  1  6
  7 19  1  0
  7 20  1  0
  8 21  1  0
  9 22  1  0
 10 23  1  0
 11 24  1  0
 12 25  1  0
 12 26  1  0
  4 27  1  0
 27 28  1  0
M  END
