
     RDKit          3D

 61 63  0  0  0  0  0  0  0  0999 V2000
    0.6754    2.8073   -1.3053 F   0  0  0  0  0  0  0  0  0  0  0  0
   -0.1895    1.9962   -0.7058 C   0  0  0  0  0  0  0  0  0  0  0  0
   -0.1542    0.6375   -0.9540 C   0  0  0  0  0  0  0  0  0  0  0  0
    1.0113   -0.0616   -2.0699 S   0  0  0  0  0  0  0  0  0  0  0  0
    2.5627    0.1726   -1.1310 C   0  0  0  0  0  0  0  0  0  0  0  0
    3.6769   -0.5868   -1.8460 C   0  0  0  0  0  0  0  0  0  0  0  0
    4.9751   -0.3893   -1.1168 C   0  0  0  0  0  0  0  0  0  0  0  0
    5.8203    0.6686   -1.4438 C   0  0  0  0  0  0  0  0  0  0  0  0
    6.9974    0.8751   -0.7465 C   0  0  0  0  0  0  0  0  0  0  0  0
    7.3550    0.0260    0.2990 C   0  0  0  0  0  0  0  0  0  0  0  0
    8.6275    0.2860    1.0131 C   0  0  0  0  0  0  0  0  0  0  0  0
    8.8730   -0.5902    1.9778 O   0  0  0  0  0  0  0  0  0  0  0  0
    9.3702    1.2020    0.7498 O   0  0  0  0  0  0  0  0  0  0  0  0
    6.5133   -1.0342    0.6325 C   0  0  0  0  0  0  0  0  0  0  0  0
    5.3367   -1.2341   -0.0705 C   0  0  0  0  0  0  0  0  0  0  0  0
   -1.1044    2.5399    0.1771 C   0  0  0  0  0  0  0  0  0  0  0  0
   -1.0485    3.8493    0.3814 F   0  0  0  0  0  0  0  0  0  0  0  0
   -2.0465    1.7269    0.7847 C   0  0  0  0  0  0  0  0  0  0  0  0
   -3.2389    2.4014    1.9348 S   0  0  1  0  0  0  0  0  0  0  0  0
   -3.1593    3.8498    1.9570 O   0  0  0  0  0  0  0  0  0  0  0  0
   -4.6530    2.0409    1.1801 N   0  0  0  0  0  0  0  0  0  0  0  0
   -3.0385    1.6932    3.1895 O   0  0  0  0  0  0  0  0  0  0  0  0
   -2.0612    0.3371    0.5545 C   0  0  0  0  0  0  0  0  0  0  0  0
   -1.0817   -0.1627   -0.2989 C   0  0  0  0  0  0  0  0  0  0  0  0
   -1.0049   -1.4775   -0.4946 F   0  0  0  0  0  0  0  0  0  0  0  0
   -3.0313   -0.4401    1.1850 N   0  0  0  0  0  0  0  0  0  0  0  0
   -3.6699   -1.6148    0.5761 C   0  0  2  0  0  0  0  0  0  0  0  0
   -4.2598   -1.2219   -0.7749 C   0  0  0  0  0  0  0  0  0  0  0  0
   -4.8733   -2.3497   -1.6083 C   0  0  0  0  0  0  0  0  0  0  0  0
   -4.0656   -3.6553   -1.6631 C   0  0  0  0  0  0  0  0  0  0  0  0
   -4.5629   -4.7713   -0.7436 C   0  0  0  0  0  0  0  0  0  0  0  0
   -4.5129   -4.5531    0.7689 C   0  0  0  0  0  0  0  0  0  0  0  0
   -5.4049   -3.4209    1.2993 C   0  0  0  0  0  0  0  0  0  0  0  0
   -4.6952   -2.0991    1.5993 C   0  0  0  0  0  0  0  0  0  0  0  0
    2.7995    1.2340   -1.0716 H   0  0  0  0  0  0  0  0  0  0  0  0
    2.4197   -0.2137   -0.1220 H   0  0  0  0  0  0  0  0  0  0  0  0
    3.4271   -1.6486   -1.8886 H   0  0  0  0  0  0  0  0  0  0  0  0
    3.7694   -0.2302   -2.8742 H   0  0  0  0  0  0  0  0  0  0  0  0
    5.5599    1.3342   -2.2578 H   0  0  0  0  0  0  0  0  0  0  0  0
    7.6431    1.6985   -1.0214 H   0  0  0  0  0  0  0  0  0  0  0  0
    9.7162   -0.3792    2.4051 H   0  0  0  0  0  0  0  0  0  0  0  0
    6.7642   -1.7128    1.4361 H   0  0  0  0  0  0  0  0  0  0  0  0
    4.6924   -2.0630    0.1974 H   0  0  0  0  0  0  0  0  0  0  0  0
   -4.9019    1.0619    1.2643 H   0  0  0  0  0  0  0  0  0  0  0  0
   -5.4033    2.6530    1.4861 H   0  0  0  0  0  0  0  0  0  0  0  0
   -2.8591   -0.5492    2.1756 H   0  0  0  0  0  0  0  0  0  0  0  0
   -2.9461   -2.4201    0.4291 H   0  0  0  0  0  0  0  0  0  0  0  0
   -5.0096   -0.4393   -0.6200 H   0  0  0  0  0  0  0  0  0  0  0  0
   -3.4740   -0.7637   -1.3818 H   0  0  0  0  0  0  0  0  0  0  0  0
   -5.8912   -2.5615   -1.2750 H   0  0  0  0  0  0  0  0  0  0  0  0
   -4.9850   -1.9583   -2.6221 H   0  0  0  0  0  0  0  0  0  0  0  0
   -4.1096   -4.0467   -2.6825 H   0  0  0  0  0  0  0  0  0  0  0  0
   -3.0047   -3.4557   -1.4812 H   0  0  0  0  0  0  0  0  0  0  0  0
   -5.5999   -4.9962   -1.0176 H   0  0  0  0  0  0  0  0  0  0  0  0
   -3.9927   -5.6761   -0.9740 H   0  0  0  0  0  0  0  0  0  0  0  0
   -4.8329   -5.4904    1.2309 H   0  0  0  0  0  0  0  0  0  0  0  0
   -3.4786   -4.4114    1.0983 H   0  0  0  0  0  0  0  0  0  0  0  0
   -6.2380   -3.2627    0.6128 H   0  0  0  0  0  0  0  0  0  0  0  0
   -5.8663   -3.7411    2.2361 H   0  0  0  0  0  0  0  0  0  0  0  0
   -4.1680   -2.2172    2.5530 H   0  0  0  0  0  0  0  0  0  0  0  0
   -5.4440   -1.3157    1.7596 H   0  0  0  0  0  0  0  0  0  0  0  0
 13 11  2  0
 12 11  1  0
 11 10  1  0
  9 10  1  0
  9  8  2  0
 10 14  2  0
  8  7  1  0
 14 15  1  0
  4  5  1  0
  4  3  1  0
  7 15  2  0
  7  6  1  0
  5  6  1  0
  3  2  2  0
  3 24  1  0
  1  2  1  0
 25 24  1  0
  2 16  1  0
 24 23  2  0
 16 17  1  0
 16 18  2  0
 23 18  1  0
 23 26  1  0
 18 19  1  0
 26 27  1  0
 27 34  1  0
 27 28  1  0
 34 33  1  0
 29 28  1  0
 29 30  1  0
 33 32  1  0
 19 21  1  6
 19 22  2  0
 19 20  2  0
 30 31  1  0
 32 31  1  0
  5 35  1  0
  5 36  1  0
  6 37  1  0
  6 38  1  0
  8 39  1  0
  9 40  1  0
 12 41  1  0
 14 42  1  0
 15 43  1  0
 21 44  1  0
 21 45  1  0
 26 46  1  0
 27 47  1  6
 28 48  1  0
 28 49  1  0
 29 50  1  0
 29 51  1  0
 30 52  1  0
 30 53  1  0
 31 54  1  0
 31 55  1  0
 32 56  1  0
 32 57  1  0
 33 58  1  0
 33 59  1  0
 34 60  1  0
 34 61  1  0
M  END
