
     RDKit          3D

109112  0  0  0  0  0  0  0  0999 V2000
    4.5480    2.3405    0.8517 C   0  0  0  0  0  0  0  0  0  0  0  0
    4.9250    0.8869    1.1176 C   0  0  0  0  0  0  0  0  0  0  0  0
    4.0443   -0.0945    0.3502 C   0  0  2  0  0  0  0  0  0  0  0  0
    4.4758   -1.5318    0.6403 C   0  0  0  0  0  0  0  0  0  0  0  0
    3.6103   -2.5964   -0.0332 C   0  0  1  0  0  0  0  0  0  0  0  0
   -0.1588   -2.0990    0.2152 C   0  0  2  0  0  0  0  0  0  0  0  0
   -0.1233    0.2703    0.8597 C   0  0  0  0  0  0  0  0  0  0  0  0
    4.2954    4.5052   -2.4021 C   0  0  0  0  0  0  0  0  0  0  0  0
    3.9273    5.9544   -2.7073 C   0  0  0  0  0  0  0  0  0  0  0  0
    4.7454    6.9283   -1.8708 C   0  0  0  0  0  0  0  0  0  0  0  0
    4.5989    6.6075   -0.3899 C   0  0  0  0  0  0  0  0  0  0  0  0
    4.9741    5.1600   -0.0843 C   0  0  0  0  0  0  0  0  0  0  0  0
    4.1709    4.1532   -0.9152 C   0  0  2  0  0  0  0  0  0  0  0  0
    4.5850    2.6950   -0.6375 C   0  0  2  0  0  0  0  0  0  0  0  0
    3.7214    1.6947   -1.4117 C   0  0  0  0  0  0  0  0  0  0  0  0
    4.0930    0.2417   -1.1362 C   0  0  0  0  0  0  0  0  0  0  0  0
    4.0134   -4.0598    0.2553 C   0  0  1  0  0  0  0  0  0  0  0  0
    3.0347   -4.9281   -0.2686 O   0  0  0  0  0  0  0  0  0  0  0  0
    2.2311   -2.4005    0.3757 N   0  0  0  0  0  0  0  0  0  0  0  0
    1.1788   -2.4428   -0.4465 C   0  0  0  0  0  0  0  0  0  0  0  0
    1.2482   -2.6850   -1.6446 O   0  0  0  0  0  0  0  0  0  0  0  0
   -1.2858   -2.9706   -0.3311 C   0  0  0  0  0  0  0  0  0  0  0  0
   -2.6131   -2.6800    0.3153 C   0  0  0  0  0  0  0  0  0  0  0  0
   -3.6959   -2.2204   -0.4295 C   0  0  0  0  0  0  0  0  0  0  0  0
   -4.9305   -1.9928    0.1560 C   0  0  0  0  0  0  0  0  0  0  0  0
   -5.1104   -2.2057    1.5229 C   0  0  0  0  0  0  0  0  0  0  0  0
   -6.3426   -1.9567    2.0122 O   0  0  0  0  0  0  0  0  0  0  0  0
   -6.5704   -2.1282    3.3983 C   0  0  0  0  0  0  0  0  0  0  0  0
   -4.0337   -2.6493    2.2876 C   0  0  0  0  0  0  0  0  0  0  0  0
   -2.8099   -2.8870    1.6760 C   0  0  0  0  0  0  0  0  0  0  0  0
   -0.4394   -0.6983   -0.0143 N   0  0  0  0  0  0  0  0  0  0  0  0
    0.4560    0.0715    1.9150 O   0  0  0  0  0  0  0  0  0  0  0  0
   -0.6036    1.6676    0.4516 C   0  0  2  0  0  0  0  0  0  0  0  0
    0.2616    2.7655    1.0382 C   0  0  0  0  0  0  0  0  0  0  0  0
   -1.9767    1.8210    0.9042 N   0  0  0  0  0  0  0  0  0  0  0  0
   -3.0349    1.4445    0.1861 C   0  0  0  0  0  0  0  0  0  0  0  0
   -2.9937    1.0095   -0.9543 O   0  0  0  0  0  0  0  0  0  0  0  0
   -4.3621    1.5565    0.9191 C   0  0  0  0  0  0  0  0  0  0  0  0
   -5.4707    1.5457   -0.0570 N   0  0  1  0  0  0  0  0  0  0  0  0
   -6.7829    1.2337    0.5889 C   0  0  0  0  0  0  0  0  0  0  0  0
   -7.8800    1.2351   -0.4560 C   0  0  0  0  0  0  0  0  0  0  0  0
   -7.9525    2.4670   -1.1274 O   0  0  0  0  0  0  0  0  0  0  0  0
   -6.7435    2.7522   -1.7852 C   0  0  0  0  0  0  0  0  0  0  0  0
   -5.5847    2.8345   -0.8124 C   0  0  0  0  0  0  0  0  0  0  0  0
    3.5416    2.5369    1.2429 H   0  0  0  0  0  0  0  0  0  0  0  0
    5.2227    2.9848    1.4175 H   0  0  0  0  0  0  0  0  0  0  0  0
    5.9719    0.7314    0.8287 H   0  0  0  0  0  0  0  0  0  0  0  0
    4.8682    0.6813    2.1908 H   0  0  0  0  0  0  0  0  0  0  0  0
    3.0140    0.0476    0.6989 H   0  0  0  0  0  0  0  0  0  0  0  0
    5.5104   -1.6572    0.3224 H   0  0  0  0  0  0  0  0  0  0  0  0
    4.4723   -1.6996    1.7241 H   0  0  0  0  0  0  0  0  0  0  0  0
    3.6358   -2.4463   -1.1162 H   0  0  0  0  0  0  0  0  0  0  0  0
   -0.0797   -2.2489    1.2935 H   0  0  0  0  0  0  0  0  0  0  0  0
    3.6669    3.8490   -3.0062 H   0  0  0  0  0  0  0  0  0  0  0  0
    5.3288    4.3193   -2.7213 H   0  0  0  0  0  0  0  0  0  0  0  0
    4.0656    6.1528   -3.7734 H   0  0  0  0  0  0  0  0  0  0  0  0
    2.8619    6.1070   -2.5014 H   0  0  0  0  0  0  0  0  0  0  0  0
    5.8011    6.8568   -2.1559 H   0  0  0  0  0  0  0  0  0  0  0  0
    4.4384    7.9579   -2.0719 H   0  0  0  0  0  0  0  0  0  0  0  0
    5.2138    7.2829    0.2103 H   0  0  0  0  0  0  0  0  0  0  0  0
    3.5614    6.7815   -0.0829 H   0  0  0  0  0  0  0  0  0  0  0  0
    6.0439    5.0133   -0.2800 H   0  0  0  0  0  0  0  0  0  0  0  0
    4.8300    4.9815    0.9825 H   0  0  0  0  0  0  0  0  0  0  0  0
    3.1123    4.2583   -0.6293 H   0  0  0  0  0  0  0  0  0  0  0  0
    5.6238    2.5757   -0.9808 H   0  0  0  0  0  0  0  0  0  0  0  0
    2.6685    1.8500   -1.1411 H   0  0  0  0  0  0  0  0  0  0  0  0
    3.7877    1.8715   -2.4862 H   0  0  0  0  0  0  0  0  0  0  0  0
    5.1039    0.0421   -1.5140 H   0  0  0  0  0  0  0  0  0  0  0  0
    3.4207   -0.4060   -1.7048 H   0  0  0  0  0  0  0  0  0  0  0  0
    3.9919   -4.2108    1.3419 H   0  0  0  0  0  0  0  0  0  0  0  0
    2.8438   -4.6809   -1.1799 H   0  0  0  0  0  0  0  0  0  0  0  0
    6.6148   -6.2796   -0.3153 H   0  0  0  0  0  0  0  0  0  0  0  0
    5.3292   -6.3504    0.8918 H   0  0  0  0  0  0  0  0  0  0  0  0
    4.9531   -6.5341   -0.8237 H   0  0  0  0  0  0  0  0  0  0  0  0
    4.9498   -4.4378   -2.3563 H   0  0  0  0  0  0  0  0  0  0  0  0
    5.7307   -2.9649   -1.7765 H   0  0  0  0  0  0  0  0  0  0  0  0
    6.6658   -4.4393   -2.0016 H   0  0  0  0  0  0  0  0  0  0  0  0
    7.2312   -4.0883    0.3876 H   0  0  0  0  0  0  0  0  0  0  0  0
    2.0644   -2.1891    1.3479 H   0  0  0  0  0  0  0  0  0  0  0  0
   -1.3589   -2.8370   -1.4123 H   0  0  0  0  0  0  0  0  0  0  0  0
   -1.0130   -4.0163   -0.1659 H   0  0  0  0  0  0  0  0  0  0  0  0
   -3.5852   -2.0513   -1.4935 H   0  0  0  0  0  0  0  0  0  0  0  0
   -5.7729   -1.6842   -0.4540 H   0  0  0  0  0  0  0  0  0  0  0  0
   -7.6054   -1.8490    3.5765 H   0  0  0  0  0  0  0  0  0  0  0  0
   -6.4268   -3.1663    3.7081 H   0  0  0  0  0  0  0  0  0  0  0  0
   -5.9226   -1.4869    4.0011 H   0  0  0  0  0  0  0  0  0  0  0  0
   -4.1309   -2.8306    3.3493 H   0  0  0  0  0  0  0  0  0  0  0  0
   -1.9943   -3.2545    2.2886 H   0  0  0  0  0  0  0  0  0  0  0  0
   -0.8992   -0.4438   -0.8763 H   0  0  0  0  0  0  0  0  0  0  0  0
   -0.5996    1.7512   -0.6366 H   0  0  0  0  0  0  0  0  0  0  0  0
   -0.0806    3.7373    0.6864 H   0  0  0  0  0  0  0  0  0  0  0  0
    0.2388    2.7583    2.1273 H   0  0  0  0  0  0  0  0  0  0  0  0
    1.2977    2.6432    0.7254 H   0  0  0  0  0  0  0  0  0  0  0  0
   -2.1183    2.1387    1.8526 H   0  0  0  0  0  0  0  0  0  0  0  0
   -4.4741    0.6905    1.5751 H   0  0  0  0  0  0  0  0  0  0  0  0
   -4.4392    2.4554    1.5293 H   0  0  0  0  0  0  0  0  0  0  0  0
   -5.2522    0.8082   -0.7375 H   0  0  0  0  0  0  0  0  0  0  0  0
   -6.7102    0.2623    1.0745 H   0  0  0  0  0  0  0  0  0  0  0  0
   -6.9518    1.9944    1.3502 H   0  0  0  0  0  0  0  0  0  0  0  0
   -7.7216    0.4104   -1.1654 H   0  0  0  0  0  0  0  0  0  0  0  0
   -8.8318    1.0623    0.0444 H   0  0  0  0  0  0  0  0  0  0  0  0
   -6.5274    2.0004   -2.5563 H   0  0  0  0  0  0  0  0  0  0  0  0
   -6.8448    3.7171   -2.2806 H   0  0  0  0  0  0  0  0  0  0  0  0
   -5.7352    3.6203   -0.0728 H   0  0  0  0  0  0  0  0  0  0  0  0
   -4.6529    3.0142   -1.3428 H   0  0  0  0  0  0  0  0  0  0  0  0
    5.4253   -4.4809   -0.2264 C   0  0  1  0  0  0  0  0  0  0  0  0
    5.5782   -5.9991   -0.1117 C   0  0  0  0  0  0  0  0  0  0  0  0
    5.7018   -4.0497   -1.6668 C   0  0  0  0  0  0  0  0  0  0  0  0
    6.3381   -3.8593    0.6657 O   0  0  0  0  0  0  0  0  0  0  0  0
  1  2  1  0
  1 14  1  0
  2  3  1  0
  3  4  1  0
  3 16  1  0
  4  5  1  0
  5 17  1  0
  5 19  1  0
106107  1  0
106108  1  0
106109  1  1
  6 20  1  0
  6 22  1  0
  6 31  1  0
  7 31  1  0
  7 32  2  0
  7 33  1  0
  8  9  1  0
  8 13  1  0
  9 10  1  0
 10 11  1  0
 11 12  1  0
 12 13  1  0
 13 14  1  0
 14 15  1  0
 15 16  1  0
 17 18  1  0
 19 20  1  0
 20 21  2  0
 22 23  1  0
 23 24  2  0
 23 30  1  0
 24 25  1  0
 25 26  2  0
 26 27  1  0
 26 29  1  0
 27 28  1  0
 29 30  2  0
 33 34  1  0
 33 35  1  0
 35 36  1  0
 36 37  2  0
 36 38  1  0
 38 39  1  0
 39 40  1  0
 39 44  1  0
 40 41  1  0
 41 42  1  0
 42 43  1  0
 43 44  1  0
 17106  1  0
  1 45  1  0
  1 46  1  0
  2 47  1  0
  2 48  1  0
  3 49  1  1
  4 50  1  0
  4 51  1  0
  5 52  1  6
  6 53  1  1
  8 54  1  0
  8 55  1  0
  9 56  1  0
  9 57  1  0
 10 58  1  0
 10 59  1  0
 11 60  1  0
 11 61  1  0
 12 62  1  0
 12 63  1  0
 13 64  1  1
 14 65  1  6
 15 66  1  0
 15 67  1  0
 16 68  1  0
 16 69  1  0
 17 70  1  1
 18 71  1  0
107 72  1  0
107 73  1  0
107 74  1  0
108 75  1  0
108 76  1  0
108 77  1  0
109 78  1  0
 19 79  1  0
 22 80  1  0
 22 81  1  0
 24 82  1  0
 25 83  1  0
 28 84  1  0
 28 85  1  0
 28 86  1  0
 29 87  1  0
 30 88  1  0
 31 89  1  0
 33 90  1  6
 34 91  1  0
 34 92  1  0
 34 93  1  0
 35 94  1  0
 38 95  1  0
 38 96  1  0
 39 97  1  6
 40 98  1  0
 40 99  1  0
 41100  1  0
 41101  1  0
 43102  1  0
 43103  1  0
 44104  1  0
 44105  1  0
M  CHG  1  39   1
M  END
