
     RDKit          3D

 17 16  0  0  0  0  0  0  0  0999 V2000
    0.0199   -0.0532   -2.0167 Br  0  0  0  0  0  0  0  0  0  0  0  0
   -0.8039   -0.0235   -0.2222 C   0  0  0  0  0  0  0  0  0  0  0  0
    0.2403   -0.0235    0.8720 C   0  0  0  0  0  0  0  0  0  0  0  0
   -0.4283    0.0001    2.2454 C   0  0  0  0  0  0  0  0  0  0  0  0
    0.5826    0.0016    3.3861 C   0  0  0  0  0  0  0  0  0  0  0  0
   -0.0822    0.0240    4.7554 C   0  0  0  0  0  0  0  0  0  0  0  0
   -1.4459   -0.9018   -0.1708 H   0  0  0  0  0  0  0  0  0  0  0  0
   -1.4260    0.8701   -0.1904 H   0  0  0  0  0  0  0  0  0  0  0  0
    0.8939    0.8461    0.7675 H   0  0  0  0  0  0  0  0  0  0  0  0
    0.8716   -0.9118    0.7877 H   0  0  0  0  0  0  0  0  0  0  0  0
   -1.0890   -0.8673    2.3468 H   0  0  0  0  0  0  0  0  0  0  0  0
   -1.0695    0.8842    2.3268 H   0  0  0  0  0  0  0  0  0  0  0  0
    1.2425    0.8681    3.2829 H   0  0  0  0  0  0  0  0  0  0  0  0
    1.2239   -0.8807    3.3019 H   0  0  0  0  0  0  0  0  0  0  0  0
    0.6550    0.0243    5.5587 H   0  0  0  0  0  0  0  0  0  0  0  0
   -0.7046    0.9128    4.8763 H   0  0  0  0  0  0  0  0  0  0  0  0
   -0.7243   -0.8476    4.8955 H   0  0  0  0  0  0  0  0  0  0  0  0
  1  2  1  0
  2  3  1  0
  2  7  1  0
  2  8  1  0
  3  4  1  0
  3  9  1  0
  3 10  1  0
  4  5  1  0
  4 11  1  0
  4 12  1  0
  5  6  1  0
  5 13  1  0
  5 14  1  0
  6 15  1  0
  6 16  1  0
  6 17  1  0
M  END
