
     RDKit          3D

 20 19  0  0  0  0  0  0  0  0999 V2000
    1.7527    0.0037    0.5650 O   0  0  0  0  0  0  0  0  0  0  0  0
    0.5513    0.0101    0.5072 C   0  0  0  0  0  0  0  0  0  0  0  0
   -0.2166   -0.0013    1.8509 C   0  0  0  0  0  0  0  0  0  0  0  0
   -1.4136   -0.0067    1.9569 O   0  0  0  0  0  0  0  0  0  0  0  0
    0.6278   -0.0053    2.8596 O   0  0  0  0  0  0  0  0  0  0  0  0
   -0.2251    0.0269   -0.7950 C   0  0  2  0  0  0  0  0  0  0  0  0
   -1.0939    1.2927   -0.8636 C   0  0  0  0  0  0  0  0  0  0  0  0
   -1.0936   -1.2371   -0.8943 C   0  0  0  0  0  0  0  0  0  0  0  0
    0.8014    0.0399   -1.9373 C   0  0  0  0  0  0  0  0  0  0  0  0
    0.1122    0.0624   -3.1643 O   0  0  0  0  0  0  0  0  0  0  0  0
    0.1425   -0.0125    3.6994 H   0  0  0  0  0  0  0  0  0  0  0  0
   -0.4876    2.1967   -0.7808 H   0  0  0  0  0  0  0  0  0  0  0  0
   -1.6081    1.3256   -1.8231 H   0  0  0  0  0  0  0  0  0  0  0  0
   -1.8522    1.3157   -0.0852 H   0  0  0  0  0  0  0  0  0  0  0  0
   -0.4865   -2.1424   -0.8327 H   0  0  0  0  0  0  0  0  0  0  0  0
   -1.8526   -1.2803   -0.1173 H   0  0  0  0  0  0  0  0  0  0  0  0
   -1.6067   -1.2476   -1.8549 H   0  0  0  0  0  0  0  0  0  0  0  0
    1.4508    0.9180   -1.8339 H   0  0  0  0  0  0  0  0  0  0  0  0
    1.4410   -0.8478   -1.8603 H   0  0  0  0  0  0  0  0  0  0  0  0
    0.7627    0.0247   -3.8706 H   0  0  0  0  0  0  0  0  0  0  0  0
  1  2  2  0
  2  3  1  0
  6  2  1  1
  3  4  2  0
  3  5  1  0
  5 11  1  0
  6  7  1  0
  6  8  1  0
  6  9  1  0
  7 12  1  0
  7 13  1  0
  7 14  1  0
  8 15  1  0
  8 16  1  0
  8 17  1  0
  9 10  1  0
  9 18  1  0
  9 19  1  0
 10 20  1  0
M  END
