
     RDKit          3D

 25 26  0  0  0  0  0  0  0  0999 V2000
    3.9764   -0.9918    0.0932 N   0  0  0  0  0  0  0  0  0  0  0  0
   -1.9057    0.0238    0.5706 C   0  0  1  0  0  0  0  0  0  0  0  0
   -0.4779    0.3555    0.1986 C   0  0  0  0  0  0  0  0  0  0  0  0
    1.7638   -0.4820    0.2441 C   0  0  0  0  0  0  0  0  0  0  0  0
    2.7664   -1.3614    0.5647 C   0  0  0  0  0  0  0  0  0  0  0  0
    0.4409   -0.5801    0.5728 N   0  0  0  0  0  0  0  0  0  0  0  0
   -2.6433    1.2037    0.7316 O   0  0  0  0  0  0  0  0  0  0  0  0
   -2.5749   -0.8005   -0.5558 C   0  0  2  0  0  0  0  0  0  0  0  0
   -3.9844   -0.2147   -0.5443 C   0  0  0  0  0  0  0  0  0  0  0  0
   -3.7149    1.2376   -0.2067 C   0  0  0  0  0  0  0  0  0  0  0  0
    3.9858    0.0964   -0.5601 N   0  0  0  0  0  0  0  0  0  0  0  0
   -0.1473    1.3401   -0.4295 O   0  0  0  0  0  0  0  0  0  0  0  0
    2.4541    0.7904   -0.6562 S   0  0  0  0  0  0  0  0  0  0  0  0
   -1.9147   -0.5483    1.5092 H   0  0  0  0  0  0  0  0  0  0  0  0
    2.6527   -2.2721    1.1332 H   0  0  0  0  0  0  0  0  0  0  0  0
    0.1573   -1.3647    1.1431 H   0  0  0  0  0  0  0  0  0  0  0  0
   -2.1103   -0.5436   -1.5140 H   0  0  0  0  0  0  0  0  0  0  0  0
   -4.4935   -0.3405   -1.4995 H   0  0  0  0  0  0  0  0  0  0  0  0
   -4.5920   -0.6899    0.2309 H   0  0  0  0  0  0  0  0  0  0  0  0
   -4.5625    1.7466    0.2532 H   0  0  0  0  0  0  0  0  0  0  0  0
   -3.4221    1.8000   -1.1005 H   0  0  0  0  0  0  0  0  0  0  0  0
   -2.4947   -2.3012   -0.3490 C   0  0  0  0  0  0  0  0  0  0  0  0
   -2.9522   -2.5890    0.5992 H   0  0  0  0  0  0  0  0  0  0  0  0
   -3.0164   -2.8268   -1.1487 H   0  0  0  0  0  0  0  0  0  0  0  0
   -1.4630   -2.6570   -0.3491 H   0  0  0  0  0  0  0  0  0  0  0  0
 11  1  2  0
 11 13  1  0
  1  5  1  0
 13  4  1  0
  5  4  2  0
  4  6  1  0
 12  3  2  0
  6  3  1  0
  3  2  1  0
  2  7  1  0
  2  8  1  0
  7 10  1  0
 22  8  1  0
  8  9  1  0
 10  9  1  0
  2 14  1  1
  5 15  1  0
  6 16  1  0
 22 23  1  0
 22 24  1  0
 22 25  1  0
  8 17  1  6
  9 18  1  0
  9 19  1  0
 10 20  1  0
 10 21  1  0
M  END
