
     RDKit          3D

 30 31  0  0  0  0  0  0  0  0999 V2000
    2.4740    1.7412    0.2690 C   0  0  0  0  0  0  0  0  0  0  0  0
    4.7573   -0.7465   -0.9249 O   0  0  0  0  0  0  0  0  0  0  0  0
    1.3261   -0.2526    0.2921 C   0  0  0  0  0  0  0  0  0  0  0  0
    2.4551   -0.9936   -0.2112 C   0  0  0  0  0  0  0  0  0  0  0  0
    3.6894   -0.2907   -0.4924 C   0  0  0  0  0  0  0  0  0  0  0  0
    0.8524   -2.4379    0.0592 C   0  0  0  0  0  0  0  0  0  0  0  0
   -4.1497   -1.0949    1.0414 N   0  0  0  0  0  0  0  0  0  0  0  0
   -3.3296   -0.0173    0.5346 C   0  0  1  0  0  0  0  0  0  0  0  0
   -1.9900   -0.4072   -0.1150 C   0  0  0  0  0  0  0  0  0  0  0  0
   -1.0242   -0.9465    0.9420 C   0  0  0  0  0  0  0  0  0  0  0  0
    0.3023   -1.1923    0.4618 N   0  0  0  0  0  0  0  0  0  0  0  0
    1.3056    1.1067    0.5406 N   0  0  0  0  0  0  0  0  0  0  0  0
    2.5456    3.1335    0.4931 N   0  0  0  0  0  0  0  0  0  0  0  0
    3.6305    1.1056   -0.2246 N   0  0  0  0  0  0  0  0  0  0  0  0
    2.1308   -2.3449   -0.3449 N   0  0  0  0  0  0  0  0  0  0  0  0
   -4.1006    0.7767   -0.5103 C   0  0  0  0  0  0  0  0  0  0  0  0
   -4.8317    0.3625   -1.4112 O   0  0  0  0  0  0  0  0  0  0  0  0
   -3.9333    2.1219   -0.4006 O   0  0  0  0  0  0  0  0  0  0  0  0
    4.4564    1.6351   -0.4022 H   0  0  0  0  0  0  0  0  0  0  0  0
   -3.1146    0.6736    1.4077 H   0  0  0  0  0  0  0  0  0  0  0  0
   -2.1575   -1.1686   -0.9192 H   0  0  0  0  0  0  0  0  0  0  0  0
   -1.5523    0.5084   -0.5957 H   0  0  0  0  0  0  0  0  0  0  0  0
   -0.9590   -0.2032    1.7892 H   0  0  0  0  0  0  0  0  0  0  0  0
   -1.4171   -1.9216    1.3510 H   0  0  0  0  0  0  0  0  0  0  0  0
    1.7495    3.6219    0.8419 H   0  0  0  0  0  0  0  0  0  0  0  0
    3.3833    3.6371    0.3070 H   0  0  0  0  0  0  0  0  0  0  0  0
    0.2596   -3.3580    0.0906 H   0  0  0  0  0  0  0  0  0  0  0  0
   -3.9004   -1.3109    1.9854 H   0  0  0  0  0  0  0  0  0  0  0  0
   -4.4477    2.5719   -1.0916 H   0  0  0  0  0  0  0  0  0  0  0  0
   -4.0723   -1.9146    0.4702 H   0  0  0  0  0  0  0  0  0  0  0  0
 14  1  1  0
  1 12  2  0
  1 13  1  0
  2  5  2  0
  4  3  2  0
  3 11  1  0
  3 12  1  0
 15  4  1  0
  5  4  1  0
  5 14  1  0
 15  6  2  0
  6 27  1  0
  6 11  1  0
  8  7  1  0
 30  7  1  0
  7 28  1  0
  9  8  1  0
 16  8  1  0
  8 20  1  1
 10  9  1  0
 22  9  1  0
  9 21  1  0
 11 10  1  0
 23 10  1  0
 10 24  1  0
 26 13  1  0
 13 25  1  0
 19 14  1  0
 18 16  1  0
 17 16  2  0
 18 29  1  0
M  END
