
     RDKit          3D

 52 53  0  0  0  0  0  0  0  0999 V2000
   10.2699   -1.5156   -0.2218 C   0  0  0  0  0  0  0  0  0  0  0  0
    8.8192   -1.7968    0.1439 C   0  0  0  0  0  0  0  0  0  0  0  0
    7.8981   -0.6168   -0.1413 C   0  0  0  0  0  0  0  0  0  0  0  0
    6.4431   -0.8853    0.2198 C   0  0  0  0  0  0  0  0  0  0  0  0
    5.5259    0.2986   -0.0604 C   0  0  0  0  0  0  0  0  0  0  0  0
    4.0688    0.0192    0.2829 C   0  0  0  0  0  0  0  0  0  0  0  0
    3.1561    1.2085    0.0136 C   0  0  0  0  0  0  0  0  0  0  0  0
    1.7010    0.8840    0.3079 C   0  0  0  0  0  0  0  0  0  0  0  0
    0.8604    2.0367    0.0801 N   0  0  0  0  0  0  0  0  0  0  0  0
   -0.4827    2.0130    0.0312 C   0  0  0  0  0  0  0  0  0  0  0  0
   -1.2169    0.8137    0.0777 C   0  0  0  0  0  0  0  0  0  0  0  0
   -2.5924    0.9229   -0.0297 C   0  0  0  0  0  0  0  0  0  0  0  0
   -3.2045    2.1040   -0.1404 N   0  0  0  0  0  0  0  0  0  0  0  0
   -2.4198    3.1823   -0.1481 C   0  0  0  0  0  0  0  0  0  0  0  0
   -3.0362    4.3803   -0.2850 N   0  0  0  0  0  0  0  0  0  0  0  0
   -1.0925    3.1960   -0.0743 N   0  0  0  0  0  0  0  0  0  0  0  0
   -3.4677   -0.2667   -0.0169 C   0  0  0  0  0  0  0  0  0  0  0  0
   -4.8322   -0.1366    0.2609 C   0  0  0  0  0  0  0  0  0  0  0  0
   -5.6693   -1.2328    0.2764 C   0  0  0  0  0  0  0  0  0  0  0  0
   -5.1680   -2.5076   -0.0013 C   0  0  0  0  0  0  0  0  0  0  0  0
   -6.0533   -3.5165    0.0272 O   0  0  0  0  0  0  0  0  0  0  0  0
   -5.6030   -4.8238   -0.2731 C   0  0  0  0  0  0  0  0  0  0  0  0
   -3.8126   -2.6552   -0.2891 C   0  0  0  0  0  0  0  0  0  0  0  0
   -2.9836   -1.5427   -0.2912 C   0  0  0  0  0  0  0  0  0  0  0  0
   10.3721   -1.2847   -1.2839 H   0  0  0  0  0  0  0  0  0  0  0  0
   10.6574   -0.6620    0.3378 H   0  0  0  0  0  0  0  0  0  0  0  0
   10.9122   -2.3702   -0.0058 H   0  0  0  0  0  0  0  0  0  0  0  0
    8.4640   -2.6741   -0.4061 H   0  0  0  0  0  0  0  0  0  0  0  0
    8.7528   -2.0584    1.2045 H   0  0  0  0  0  0  0  0  0  0  0  0
    8.2542    0.2610    0.4099 H   0  0  0  0  0  0  0  0  0  0  0  0
    7.9663   -0.3536   -1.2027 H   0  0  0  0  0  0  0  0  0  0  0  0
    6.0867   -1.7600   -0.3359 H   0  0  0  0  0  0  0  0  0  0  0  0
    6.3747   -1.1531    1.2800 H   0  0  0  0  0  0  0  0  0  0  0  0
    5.8739    1.1699    0.5055 H   0  0  0  0  0  0  0  0  0  0  0  0
    5.6024    0.5743   -1.1178 H   0  0  0  0  0  0  0  0  0  0  0  0
    3.7206   -0.8448   -0.2939 H   0  0  0  0  0  0  0  0  0  0  0  0
    3.9902   -0.2675    1.3368 H   0  0  0  0  0  0  0  0  0  0  0  0
    3.4758    2.0591    0.6249 H   0  0  0  0  0  0  0  0  0  0  0  0
    3.2512    1.5193   -1.0310 H   0  0  0  0  0  0  0  0  0  0  0  0
    1.3830    0.0676   -0.3457 H   0  0  0  0  0  0  0  0  0  0  0  0
    1.6014    0.5214    1.3384 H   0  0  0  0  0  0  0  0  0  0  0  0
    1.2798    2.9495    0.1661 H   0  0  0  0  0  0  0  0  0  0  0  0
   -0.7298   -0.1385    0.2178 H   0  0  0  0  0  0  0  0  0  0  0  0
   -4.0271    4.4197   -0.1202 H   0  0  0  0  0  0  0  0  0  0  0  0
   -2.5140    5.2104   -0.0638 H   0  0  0  0  0  0  0  0  0  0  0  0
   -5.2391    0.8427    0.4733 H   0  0  0  0  0  0  0  0  0  0  0  0
   -6.7219   -1.1115    0.5001 H   0  0  0  0  0  0  0  0  0  0  0  0
   -4.8393   -5.1645    0.4304 H   0  0  0  0  0  0  0  0  0  0  0  0
   -6.4696   -5.4748   -0.1911 H   0  0  0  0  0  0  0  0  0  0  0  0
   -5.2041   -4.8933   -1.2880 H   0  0  0  0  0  0  0  0  0  0  0  0
   -3.3852   -3.6208   -0.5218 H   0  0  0  0  0  0  0  0  0  0  0  0
   -1.9401   -1.6927   -0.5356 H   0  0  0  0  0  0  0  0  0  0  0  0
 22 21  1  0
 21 20  1  0
 20 19  1  0
 20 23  2  0
 19 18  2  0
 23 24  1  0
 18 17  1  0
 24 17  2  0
 17 12  1  0
 12 13  2  0
 12 11  1  0
 13 14  1  0
 11 10  2  0
 14 15  1  0
 14 16  2  0
 10 16  1  0
 10  9  1  0
  9  8  1  0
  8  7  1  0
  7  6  1  0
  6  5  1  0
  5  4  1  0
  4  3  1  0
  3  2  1  0
  2  1  1  0
  1 25  1  0
  1 26  1  0
  1 27  1  0
  2 28  1  0
  2 29  1  0
  3 30  1  0
  3 31  1  0
  4 32  1  0
  4 33  1  0
  5 34  1  0
  5 35  1  0
  6 36  1  0
  6 37  1  0
  7 38  1  0
  7 39  1  0
  8 40  1  0
  8 41  1  0
  9 42  1  0
 11 43  1  0
 15 44  1  0
 15 45  1  0
 18 46  1  0
 19 47  1  0
 22 48  1  0
 22 49  1  0
 22 50  1  0
 23 51  1  0
 24 52  1  0
M  END
