
     RDKit          3D

 38 39  0  0  0  0  0  0  0  0999 V2000
    0.4355    0.4155    0.1100 C   0  0  0  0  0  0  0  0  0  0  0  0
    1.6625   -0.0885    0.4394 N   0  0  0  0  0  0  0  0  0  0  0  0
   -0.5743   -0.4779    0.3662 N   0  0  0  0  0  0  0  0  0  0  0  0
   -4.7387   -0.2310   -0.1660 C   0  0  0  0  0  0  0  0  0  0  0  0
   -6.7866    1.0257   -0.2973 N   0  0  0  0  0  0  0  0  0  0  0  0
    0.2565    1.5260   -0.3552 O   0  0  0  0  0  0  0  0  0  0  0  0
    2.9129    0.5155    0.2772 C   0  0  0  0  0  0  0  0  0  0  0  0
   -4.1217   -1.3451    0.4005 C   0  0  0  0  0  0  0  0  0  0  0  0
   -3.9280    0.8307   -0.5558 C   0  0  0  0  0  0  0  0  0  0  0  0
   -6.9253   -1.2385   -0.6277 N   0  0  0  0  0  0  0  0  0  0  0  0
   -1.9406   -0.3244    0.1642 C   0  0  0  0  0  0  0  0  0  0  0  0
    4.0209   -0.3350    0.3257 C   0  0  0  0  0  0  0  0  0  0  0  0
   -2.7533   -1.3909    0.5674 C   0  0  0  0  0  0  0  0  0  0  0  0
   -2.5499    0.7961   -0.4055 C   0  0  0  0  0  0  0  0  0  0  0  0
    5.3135    0.1514    0.2032 C   0  0  0  0  0  0  0  0  0  0  0  0
    4.4074    2.3669   -0.0230 C   0  0  0  0  0  0  0  0  0  0  0  0
    3.1112    1.8856    0.1082 C   0  0  0  0  0  0  0  0  0  0  0  0
    6.5056   -0.7696    0.2947 C   0  0  0  0  0  0  0  0  0  0  0  0
    5.5022    1.5193    0.0165 C   0  0  0  0  0  0  0  0  0  0  0  0
    1.7045   -1.0514    0.7362 H   0  0  0  0  0  0  0  0  0  0  0  0
   -0.3115   -1.3651    0.7681 H   0  0  0  0  0  0  0  0  0  0  0  0
   -6.3694    1.7129    0.3080 H   0  0  0  0  0  0  0  0  0  0  0  0
   -7.7942    1.0445   -0.3066 H   0  0  0  0  0  0  0  0  0  0  0  0
   -4.7134   -2.1866    0.7387 H   0  0  0  0  0  0  0  0  0  0  0  0
   -4.3662    1.7091   -1.0120 H   0  0  0  0  0  0  0  0  0  0  0  0
   -6.3413   -2.0569   -0.7545 H   0  0  0  0  0  0  0  0  0  0  0  0
    3.8731   -1.4014    0.4527 H   0  0  0  0  0  0  0  0  0  0  0  0
   -2.3047   -2.2671    1.0202 H   0  0  0  0  0  0  0  0  0  0  0  0
   -1.9679    1.6381   -0.7397 H   0  0  0  0  0  0  0  0  0  0  0  0
    6.0549   -2.1905   -1.0829 H   0  0  0  0  0  0  0  0  0  0  0  0
    6.9776   -2.7315    0.1310 H   0  0  0  0  0  0  0  0  0  0  0  0
    4.5568    3.4305   -0.1596 H   0  0  0  0  0  0  0  0  0  0  0  0
    2.2831    2.5737    0.0781 H   0  0  0  0  0  0  0  0  0  0  0  0
    7.3279   -0.3276   -0.2837 H   0  0  0  0  0  0  0  0  0  0  0  0
    6.8488   -0.7804    1.3337 H   0  0  0  0  0  0  0  0  0  0  0  0
    6.5031    1.9180   -0.0989 H   0  0  0  0  0  0  0  0  0  0  0  0
   -6.2118   -0.2098   -0.3652 C   0  0  0  0  0  0  0  0  0  0  0  0
    6.1893   -2.1345   -0.0812 N   0  0  0  0  0  0  0  0  0  0  0  0
 10 37  2  0
 37  5  1  0
 37  4  1  0
  9  4  2  0
  9 14  1  0
  4  8  1  0
 14 11  2  0
  6  1  2  0
  8 13  2  0
 11 13  1  0
 11  3  1  0
  1  3  1  0
  1  2  1  0
 17 16  2  0
 17  7  1  0
 16 19  1  0
  2  7  1  0
  7 12  2  0
 19 15  2  0
 12 15  1  0
 15 18  1  0
 18 38  1  0
  2 20  1  0
  3 21  1  0
  5 22  1  0
  5 23  1  0
  8 24  1  0
  9 25  1  0
 10 26  1  0
 12 27  1  0
 13 28  1  0
 14 29  1  0
 38 30  1  0
 38 31  1  0
 16 32  1  0
 17 33  1  0
 18 34  1  0
 18 35  1  0
 19 36  1  0
M  END
