
     RDKit          3D

 64 67  0  0  0  0  0  0  0  0999 V2000
   -2.3127    0.5616   -0.2118 C   0  0  0  0  0  0  0  0  0  0  0  0
   -2.4608    2.9742   -0.1777 C   0  0  0  0  0  0  0  0  0  0  0  0
   -3.6925    0.4190   -0.1956 C   0  0  0  0  0  0  0  0  0  0  0  0
   -3.8495    2.8461   -0.1612 C   0  0  0  0  0  0  0  0  0  0  0  0
    5.0158    1.2826    0.0586 C   0  0  0  0  0  0  0  0  0  0  0  0
    4.7335   -0.0811   -0.0287 C   0  0  0  0  0  0  0  0  0  0  0  0
    3.9350    2.1541    0.0300 C   0  0  0  0  0  0  0  0  0  0  0  0
    3.4360   -0.5423   -0.1350 C   0  0  0  0  0  0  0  0  0  0  0  0
    2.6205    1.7131   -0.0786 C   0  0  0  0  0  0  0  0  0  0  0  0
    2.3578    0.3479   -0.1599 C   0  0  0  0  0  0  0  0  0  0  0  0
   -0.9268   -2.4036    1.1134 C   0  0  0  0  0  0  0  0  0  0  0  0
   -1.1958   -3.9130    1.2167 C   0  0  2  0  0  0  0  0  0  0  0  0
   -1.4724   -1.8019   -0.1808 C   0  0  2  0  0  0  0  0  0  0  0  0
   -0.7022   -4.5992   -0.0643 C   0  0  0  0  0  0  0  0  0  0  0  0
   -0.9630   -2.5185   -1.4287 C   0  0  0  0  0  0  0  0  0  0  0  0
   -1.2728   -4.0129   -1.3536 C   0  0  1  0  0  0  0  0  0  0  0  0
   -0.7287   -4.7388   -2.5767 C   0  0  0  0  0  0  0  0  0  0  0  0
    7.0121    1.4104    1.5661 C   0  0  0  0  0  0  0  0  0  0  0  0
    7.3318    1.2954   -0.9302 C   0  0  0  0  0  0  0  0  0  0  0  0
   -2.6849   -4.1850    1.4512 C   0  0  0  0  0  0  0  0  0  0  0  0
   -1.2869   -0.3524   -0.2358 N   0  0  0  0  0  0  0  0  0  0  0  0
   -4.4507    1.5776   -0.1697 C   0  0  0  0  0  0  0  0  0  0  0  0
   -4.6526    4.0870   -0.1340 C   0  0  0  0  0  0  0  0  0  0  0  0
   -5.9621    3.8659   -0.1133 O   0  0  0  0  0  0  0  0  0  0  0  0
   -4.1789    5.2005   -0.1303 O   0  0  0  0  0  0  0  0  0  0  0  0
   -1.6938    1.8230   -0.2024 C   0  0  0  0  0  0  0  0  0  0  0  0
   -0.3298    1.6794   -0.2242 N   0  0  0  0  0  0  0  0  0  0  0  0
   -0.1250    0.3897   -0.2408 C   0  0  0  0  0  0  0  0  0  0  0  0
    1.0855   -0.2178   -0.2607 N   0  0  0  0  0  0  0  0  0  0  0  0
   -1.9905    3.9485   -0.1704 H   0  0  0  0  0  0  0  0  0  0  0  0
   -4.1797   -0.5468   -0.2034 H   0  0  0  0  0  0  0  0  0  0  0  0
    5.5364   -0.8081   -0.0119 H   0  0  0  0  0  0  0  0  0  0  0  0
    4.1123    3.2217    0.0926 H   0  0  0  0  0  0  0  0  0  0  0  0
    3.2575   -1.6102   -0.1963 H   0  0  0  0  0  0  0  0  0  0  0  0
    1.8148    2.4287   -0.1001 H   0  0  0  0  0  0  0  0  0  0  0  0
    6.3963    2.8802    0.1477 H   0  0  0  0  0  0  0  0  0  0  0  0
   -1.3703   -1.8831    1.9673 H   0  0  0  0  0  0  0  0  0  0  0  0
    0.1538   -2.2432    1.1900 H   0  0  0  0  0  0  0  0  0  0  0  0
   -2.5554   -1.9316   -0.1736 H   0  0  0  0  0  0  0  0  0  0  0  0
    0.3922   -4.5190   -0.1058 H   0  0  0  0  0  0  0  0  0  0  0  0
   -0.9272   -5.6693   -0.0122 H   0  0  0  0  0  0  0  0  0  0  0  0
   -1.4220   -2.0739   -2.3151 H   0  0  0  0  0  0  0  0  0  0  0  0
    0.1199   -2.4033   -1.5546 H   0  0  0  0  0  0  0  0  0  0  0  0
   -2.3623   -4.1348   -1.3497 H   0  0  0  0  0  0  0  0  0  0  0  0
   -0.9660   -5.8031   -2.5397 H   0  0  0  0  0  0  0  0  0  0  0  0
   -1.1498   -4.3346   -3.4986 H   0  0  0  0  0  0  0  0  0  0  0  0
    0.3582   -4.6443   -2.6374 H   0  0  0  0  0  0  0  0  0  0  0  0
    6.3956    1.7959    2.3791 H   0  0  0  0  0  0  0  0  0  0  0  0
    7.0805    0.3268    1.6836 H   0  0  0  0  0  0  0  0  0  0  0  0
    8.0170    1.8186    1.6871 H   0  0  0  0  0  0  0  0  0  0  0  0
    7.4235    0.2075   -0.9260 H   0  0  0  0  0  0  0  0  0  0  0  0
    6.9454    1.5949   -1.9050 H   0  0  0  0  0  0  0  0  0  0  0  0
    8.3373    1.7073   -0.8281 H   0  0  0  0  0  0  0  0  0  0  0  0
   -0.7391   -3.9977    3.3434 H   0  0  0  0  0  0  0  0  0  0  0  0
   -0.5651   -5.5419    2.5088 H   0  0  0  0  0  0  0  0  0  0  0  0
    0.6557   -4.2849    2.3004 H   0  0  0  0  0  0  0  0  0  0  0  0
   -3.3262   -3.8241    0.6460 H   0  0  0  0  0  0  0  0  0  0  0  0
   -2.8656   -5.2569    1.5518 H   0  0  0  0  0  0  0  0  0  0  0  0
   -3.0203   -3.7043    2.3724 H   0  0  0  0  0  0  0  0  0  0  0  0
   -5.5270    1.4842   -0.1565 H   0  0  0  0  0  0  0  0  0  0  0  0
   -6.4364    4.7100   -0.0956 H   0  0  0  0  0  0  0  0  0  0  0  0
    1.0849   -1.2170   -0.3706 H   0  0  0  0  0  0  0  0  0  0  0  0
   -0.4159   -4.4644    2.4102 C   0  0  0  0  0  0  0  0  0  0  0  0
    6.4317    1.7874    0.2022 C   0  0  1  0  0  0  0  0  0  0  0  0
 12 20  1  1
 17 16  1  0
 64 19  1  0
 64 18  1  0
 64  5  1  0
 14 16  1  0
 14 12  1  0
  6  8  1  0
  6  5  2  0
 16 15  1  0
 63 12  1  0
 12 11  1  0
  8 10  2  0
  5  7  1  0
 15 13  1  0
 11 13  1  0
 10 29  1  0
 10  9  1  0
  7  9  2  0
 13 21  1  0
 29 28  1  0
 21 28  1  0
 21  1  1  0
 28 27  2  0
  1  3  2  0
  1 26  1  0
 27 26  1  0
  3 22  1  0
 26  2  2  0
 22  4  2  0
  2  4  1  0
  4 23  1  0
 23 25  2  0
 23 24  1  0
  2 30  1  0
  3 31  1  0
  6 32  1  0
  7 33  1  0
  8 34  1  0
  9 35  1  0
 64 36  1  1
 11 37  1  0
 11 38  1  0
 13 39  1  1
 14 40  1  0
 14 41  1  0
 15 42  1  0
 15 43  1  0
 16 44  1  1
 17 45  1  0
 17 46  1  0
 17 47  1  0
 18 48  1  0
 18 49  1  0
 18 50  1  0
 19 51  1  0
 19 52  1  0
 19 53  1  0
 63 54  1  0
 63 55  1  0
 63 56  1  0
 20 57  1  0
 20 58  1  0
 20 59  1  0
 22 60  1  0
 24 61  1  0
 29 62  1  0
M  END
