
     RDKit          3D

 55 58  0  0  0  0  0  0  0  0999 V2000
    3.1064   -0.1663   -0.1620 N   0  0  0  0  0  0  0  0  0  0  0  0
    4.4356    0.0172   -0.4737 C   0  0  0  0  0  0  0  0  0  0  0  0
    5.1056   -0.8441   -1.0081 O   0  0  0  0  0  0  0  0  0  0  0  0
    4.9459    1.2412   -0.1349 N   0  0  0  0  0  0  0  0  0  0  0  0
    4.2928    2.2914    0.4946 C   0  0  0  0  0  0  0  0  0  0  0  0
    4.8835    3.3281    0.7390 O   0  0  0  0  0  0  0  0  0  0  0  0
    2.9144    2.0044    0.7952 C   0  0  0  0  0  0  0  0  0  0  0  0
    2.3924    0.8120    0.4573 C   0  0  0  0  0  0  0  0  0  0  0  0
    2.5192   -1.4844   -0.5138 C   0  0  1  0  0  0  0  0  0  0  0  0
   -2.7002   -0.3396    0.5391 C   0  0  1  0  0  0  0  0  0  0  0  0
   -2.0119    1.0089    0.6345 C   0  0  0  0  0  0  0  0  0  0  0  0
   -2.3424    1.8778    1.6686 C   0  0  0  0  0  0  0  0  0  0  0  0
    2.8595   -2.5600    0.5117 C   0  0  0  0  0  0  0  0  0  0  0  0
   -1.7749    3.1439    1.7434 C   0  0  0  0  0  0  0  0  0  0  0  0
   -0.8629    3.5551    0.7818 C   0  0  0  0  0  0  0  0  0  0  0  0
   -0.5247    2.6909   -0.2529 C   0  0  0  0  0  0  0  0  0  0  0  0
   -1.0943    1.4278   -0.3265 C   0  0  0  0  0  0  0  0  0  0  0  0
   -3.8589   -0.1917   -0.4300 C   0  0  0  0  0  0  0  0  0  0  0  0
   -5.1495   -0.0124    0.0530 C   0  0  0  0  0  0  0  0  0  0  0  0
   -6.2143    0.1837   -0.8192 C   0  0  0  0  0  0  0  0  0  0  0  0
   -5.9969    0.1963   -2.1892 C   0  0  0  0  0  0  0  0  0  0  0  0
   -4.7090    0.0116   -2.6804 C   0  0  0  0  0  0  0  0  0  0  0  0
   -3.6487   -0.1778   -1.8076 C   0  0  0  0  0  0  0  0  0  0  0  0
    1.6478   -2.5230    1.4374 C   0  0  2  0  0  0  0  0  0  0  0  0
    1.3693   -3.7167    2.1122 O   0  0  0  0  0  0  0  0  0  0  0  0
    0.5296   -2.2206    0.4460 C   0  0  2  0  0  0  0  0  0  0  0  0
    1.1292   -1.3710   -0.5335 O   0  0  0  0  0  0  0  0  0  0  0  0
   -2.4835   -2.6663   -0.0194 C   0  0  0  0  0  0  0  0  0  0  0  0
   -0.6779   -1.5492    1.0653 C   0  0  0  0  0  0  0  0  0  0  0  0
   -1.7871   -1.3997    0.1327 N   0  0  0  0  0  0  0  0  0  0  0  0
    5.9221    1.3817   -0.3659 H   0  0  0  0  0  0  0  0  0  0  0  0
    2.3049    2.7506    1.2809 H   0  0  0  0  0  0  0  0  0  0  0  0
    1.3569    0.5872    0.6578 H   0  0  0  0  0  0  0  0  0  0  0  0
    2.8880   -1.7237   -1.5110 H   0  0  0  0  0  0  0  0  0  0  0  0
   -3.1285   -0.5638    1.5323 H   0  0  0  0  0  0  0  0  0  0  0  0
   -3.0509    1.5636    2.4267 H   0  0  0  0  0  0  0  0  0  0  0  0
    2.9041   -3.5309    0.0128 H   0  0  0  0  0  0  0  0  0  0  0  0
    3.8108   -2.3917    1.0137 H   0  0  0  0  0  0  0  0  0  0  0  0
   -2.0440    3.8064    2.5560 H   0  0  0  0  0  0  0  0  0  0  0  0
   -0.4172    4.5398    0.8379 H   0  0  0  0  0  0  0  0  0  0  0  0
    0.1918    2.9988   -1.0038 H   0  0  0  0  0  0  0  0  0  0  0  0
   -0.8061    0.7574   -1.1257 H   0  0  0  0  0  0  0  0  0  0  0  0
   -5.3265   -0.0252    1.1223 H   0  0  0  0  0  0  0  0  0  0  0  0
   -7.2135    0.3221   -0.4262 H   0  0  0  0  0  0  0  0  0  0  0  0
   -6.8237    0.3446   -2.8718 H   0  0  0  0  0  0  0  0  0  0  0  0
   -4.5318    0.0141   -3.7484 H   0  0  0  0  0  0  0  0  0  0  0  0
   -2.6512   -0.3325   -2.1996 H   0  0  0  0  0  0  0  0  0  0  0  0
    1.7471   -1.6866    2.1458 H   0  0  0  0  0  0  0  0  0  0  0  0
    1.9976   -3.8157    2.8336 H   0  0  0  0  0  0  0  0  0  0  0  0
    0.2428   -3.1637   -0.0373 H   0  0  0  0  0  0  0  0  0  0  0  0
   -3.2267   -2.6135   -0.8115 H   0  0  0  0  0  0  0  0  0  0  0  0
   -1.7802   -3.4511   -0.2938 H   0  0  0  0  0  0  0  0  0  0  0  0
   -2.9892   -2.9850    0.9048 H   0  0  0  0  0  0  0  0  0  0  0  0
   -0.9755   -2.1288    1.9544 H   0  0  0  0  0  0  0  0  0  0  0  0
   -0.3690   -0.5696    1.4356 H   0  0  0  0  0  0  0  0  0  0  0  0
  1  2  1  0
  1  8  1  0
  1  9  1  0
  2  3  2  0
  2  4  1  0
  4  5  1  0
  5  6  2  0
  5  7  1  0
  7  8  2  0
  9 13  1  0
  9 27  1  0
 10 11  1  0
 10 18  1  0
 10 30  1  0
 11 12  2  0
 11 17  1  0
 12 14  1  0
 13 24  1  0
 14 15  2  0
 15 16  1  0
 16 17  2  0
 18 19  2  0
 18 23  1  0
 19 20  1  0
 20 21  2  0
 21 22  1  0
 22 23  2  0
 24 25  1  0
 24 26  1  0
 26 27  1  0
 26 29  1  0
 28 30  1  0
 29 30  1  0
  4 31  1  0
  7 32  1  0
  8 33  1  0
  9 34  1  6
 10 35  1  1
 12 36  1  0
 13 37  1  0
 13 38  1  0
 14 39  1  0
 15 40  1  0
 16 41  1  0
 17 42  1  0
 19 43  1  0
 20 44  1  0
 21 45  1  0
 22 46  1  0
 23 47  1  0
 24 48  1  1
 25 49  1  0
 26 50  1  6
 28 51  1  0
 28 52  1  0
 28 53  1  0
 29 54  1  0
 29 55  1  0
M  END
