
     RDKit          3D

 43 42  0  0  0  0  0  0  0  0999 V2000
   -0.6385    0.0855   -3.1176 C   0  0  0  0  0  0  0  0  0  0  0  0
    0.2624   -0.0314   -1.8882 C   0  0  0  0  0  0  0  0  0  0  0  0
   -0.5346    0.0880   -0.5954 C   0  0  0  0  0  0  0  0  0  0  0  0
    0.3336   -0.0252    0.6510 C   0  0  0  0  0  0  0  0  0  0  0  0
   -0.4661    0.0781    1.9435 C   0  0  0  0  0  0  0  0  0  0  0  0
    0.3955   -0.0218    3.1961 C   0  0  0  0  0  0  0  0  0  0  0  0
   -0.4111    0.0611    4.4860 C   0  0  0  0  0  0  0  0  0  0  0  0
    0.4479   -0.0166    5.7422 C   0  0  0  0  0  0  0  0  0  0  0  0
   -0.3649    0.0452    7.0292 C   0  0  0  0  0  0  0  0  0  0  0  0
    0.4900   -0.0127    8.2896 C   0  0  0  0  0  0  0  0  0  0  0  0
   -0.3392    0.0438    9.5654 C   0  0  0  0  0  0  0  0  0  0  0  0
   -0.6128   -0.0612   -7.1376 C   0  0  0  0  0  0  0  0  0  0  0  0
    1.0501   -1.3518   -4.8216 O   0  0  0  0  0  0  0  0  0  0  0  0
   -0.8849    0.1387   -5.7485 O   0  0  0  0  0  0  0  0  0  0  0  0
    1.2760    1.1551   -4.7807 O   0  0  0  0  0  0  0  0  0  0  0  0
    0.2711   -0.1001   -4.6574 P   0  0  1  0  0  0  0  0  0  0  0  0
   -1.4088   -0.6899   -3.0966 H   0  0  0  0  0  0  0  0  0  0  0  0
   -1.1591    1.0471   -3.1230 H   0  0  0  0  0  0  0  0  0  0  0  0
    1.0323    0.7448   -1.9143 H   0  0  0  0  0  0  0  0  0  0  0  0
    0.7867   -0.9908   -1.9054 H   0  0  0  0  0  0  0  0  0  0  0  0
   -1.3064   -0.6888   -0.5738 H   0  0  0  0  0  0  0  0  0  0  0  0
   -1.0658    1.0459   -0.5842 H   0  0  0  0  0  0  0  0  0  0  0  0
    1.1002    0.7574    0.6330 H   0  0  0  0  0  0  0  0  0  0  0  0
    0.8731   -0.9788    0.6333 H   0  0  0  0  0  0  0  0  0  0  0  0
   -1.2264   -0.7107    1.9624 H   0  0  0  0  0  0  0  0  0  0  0  0
   -1.0148    1.0267    1.9561 H   0  0  0  0  0  0  0  0  0  0  0  0
    1.1463    0.7763    3.1845 H   0  0  0  0  0  0  0  0  0  0  0  0
    0.9552   -0.9639    3.1786 H   0  0  0  0  0  0  0  0  0  0  0  0
   -1.1516   -0.7465    4.5025 H   0  0  0  0  0  0  0  0  0  0  0  0
   -0.9835    0.9957    4.4964 H   0  0  0  0  0  0  0  0  0  0  0  0
    1.1773    0.8012    5.7334 H   0  0  0  0  0  0  0  0  0  0  0  0
    1.0326   -0.9435    5.7264 H   0  0  0  0  0  0  0  0  0  0  0  0
   -1.0857   -0.7803    7.0434 H   0  0  0  0  0  0  0  0  0  0  0  0
   -0.9604    0.9655    7.0392 H   0  0  0  0  0  0  0  0  0  0  0  0
    1.2050    0.8157    8.2793 H   0  0  0  0  0  0  0  0  0  0  0  0
    1.0884   -0.9293    8.2796 H   0  0  0  0  0  0  0  0  0  0  0  0
    0.2876    0.0064   10.4572 H   0  0  0  0  0  0  0  0  0  0  0  0
   -0.9251    0.9639    9.6120 H   0  0  0  0  0  0  0  0  0  0  0  0
   -1.0382   -0.7932    9.6177 H   0  0  0  0  0  0  0  0  0  0  0  0
   -1.5300    0.1612   -7.6768 H   0  0  0  0  0  0  0  0  0  0  0  0
    0.1732    0.6072   -7.4916 H   0  0  0  0  0  0  0  0  0  0  0  0
   -0.3224   -1.0920   -7.3396 H   0  0  0  0  0  0  0  0  0  0  0  0
    0.8646    2.0247   -4.6914 H   0  0  0  0  0  0  0  0  0  0  0  0
  1  2  1  0
  1 16  1  0
  1 17  1  0
  1 18  1  0
  2  3  1  0
  2 19  1  0
  2 20  1  0
  3  4  1  0
  3 21  1  0
  3 22  1  0
  4  5  1  0
  4 23  1  0
  4 24  1  0
  5  6  1  0
  5 25  1  0
  5 26  1  0
  6  7  1  0
  6 27  1  0
  6 28  1  0
  7  8  1  0
  7 29  1  0
  7 30  1  0
  8  9  1  0
  8 31  1  0
  8 32  1  0
  9 10  1  0
  9 33  1  0
  9 34  1  0
 10 11  1  0
 10 35  1  0
 10 36  1  0
 11 37  1  0
 11 38  1  0
 11 39  1  0
 12 14  1  0
 12 40  1  0
 12 41  1  0
 12 42  1  0
 13 16  2  0
 16 14  1  6
 15 16  1  0
 15 43  1  0
M  END
