
     RDKit          3D

 75 79  0  0  0  0  0  0  0  0999 V2000
    7.6708    2.3055   -0.3382 C   0  0  0  0  0  0  0  0  0  0  0  0
    6.7779    1.1669    0.1579 C   0  0  1  0  0  0  0  0  0  0  0  0
    7.3942    0.4630    1.3681 C   0  0  0  0  0  0  0  0  0  0  0  0
    5.3877    1.6591    0.4762 C   0  0  0  0  0  0  0  0  0  0  0  0
    5.2573    2.6677    1.5776 C   0  0  0  0  0  0  0  0  0  0  0  0
    4.3555    1.1615   -0.2237 C   0  0  0  0  0  0  0  0  0  0  0  0
    2.9477    1.4962   -0.0100 C   0  0  0  0  0  0  0  0  0  0  0  0
    2.4884    2.2843    0.7787 O   0  0  0  0  0  0  0  0  0  0  0  0
    2.1867    0.7617   -0.8420 O   0  0  0  0  0  0  0  0  0  0  0  0
    0.7859    0.7532   -0.6890 C   0  0  2  0  0  0  0  0  0  0  0  0
    0.3085   -0.6340   -1.0281 C   0  0  2  0  0  0  0  0  0  0  0  0
   -1.2144   -0.7696   -1.0376 C   0  0  1  0  0  0  0  0  0  0  0  0
   -1.2602   -2.2573   -1.4153 C   0  0  0  0  0  0  0  0  0  0  0  0
   -0.1443   -2.8510   -0.7461 O   0  0  0  0  0  0  0  0  0  0  0  0
    0.6758   -1.8459   -0.1798 C   0  0  1  0  0  0  0  0  0  0  0  0
    2.1232   -2.2781   -0.4342 C   0  0  0  0  0  0  0  0  0  0  0  0
    2.5493   -2.4509   -1.5465 O   0  0  0  0  0  0  0  0  0  0  0  0
    2.8232   -2.4624    0.6634 O   0  0  0  0  0  0  0  0  0  0  0  0
    4.1921   -2.8469    0.5192 C   0  0  0  0  0  0  0  0  0  0  0  0
    0.2863   -1.6621    1.2903 C   0  0  1  0  0  0  0  0  0  0  0  0
    1.0358   -0.5909    1.7996 O   0  0  0  0  0  0  0  0  0  0  0  0
   -1.2380   -1.4198    1.4430 C   0  0  2  0  0  0  0  0  0  0  0  0
   -1.9405   -2.6364    1.4538 O   0  0  0  0  0  0  0  0  0  0  0  0
   -1.7998   -0.4768    0.3628 C   0  0  2  0  0  0  0  0  0  0  0  0
   -3.3409   -0.2563    0.3756 C   0  0  1  0  0  0  0  0  0  0  0  0
   -4.2001   -1.4804    0.0212 C   0  0  0  0  0  0  0  0  0  0  0  0
   -3.7444    0.2291    1.7701 C   0  0  0  0  0  0  0  0  0  0  0  0
   -5.1544    0.7332    1.8320 C   0  0  0  0  0  0  0  0  0  0  0  0
   -5.8233    0.6933    2.8513 O   0  0  0  0  0  0  0  0  0  0  0  0
   -5.7207    1.3531    0.6271 C   0  0  0  0  0  0  0  0  0  0  0  0
   -6.9738    1.8440    0.7601 O   0  0  0  0  0  0  0  0  0  0  0  0
   -5.0325    1.4388   -0.5236 C   0  0  0  0  0  0  0  0  0  0  0  0
   -5.6031    2.1358   -1.7160 C   0  0  0  0  0  0  0  0  0  0  0  0
   -3.6242    0.8966   -0.6167 C   0  0  2  0  0  0  0  0  0  0  0  0
   -3.2198    0.4804   -2.0312 C   0  0  0  0  0  0  0  0  0  0  0  0
   -1.7378    0.1800   -2.1095 C   0  0  1  0  0  0  0  0  0  0  0  0
   -1.0864    1.4815   -2.0608 O   0  0  0  0  0  0  0  0  0  0  0  0
    0.1476    1.7414   -1.6476 C   0  0  0  0  0  0  0  0  0  0  0  0
    0.6815    2.7642   -1.9784 O   0  0  0  0  0  0  0  0  0  0  0  0
    7.2550    2.7771   -1.2291 H   0  0  0  0  0  0  0  0  0  0  0  0
    7.8082    3.0794    0.4186 H   0  0  0  0  0  0  0  0  0  0  0  0
    8.6583    1.9197   -0.5943 H   0  0  0  0  0  0  0  0  0  0  0  0
    6.6964    0.4321   -0.6476 H   0  0  0  0  0  0  0  0  0  0  0  0
    7.5029    1.1362    2.2198 H   0  0  0  0  0  0  0  0  0  0  0  0
    6.7869   -0.3860    1.6855 H   0  0  0  0  0  0  0  0  0  0  0  0
    8.3861    0.0854    1.1168 H   0  0  0  0  0  0  0  0  0  0  0  0
    4.7677    3.5772    1.2318 H   0  0  0  0  0  0  0  0  0  0  0  0
    4.6567    2.2792    2.4003 H   0  0  0  0  0  0  0  0  0  0  0  0
    6.2293    2.9429    1.9810 H   0  0  0  0  0  0  0  0  0  0  0  0
    4.5522    0.4320   -1.0011 H   0  0  0  0  0  0  0  0  0  0  0  0
    0.5080    1.0666    0.3193 H   0  0  0  0  0  0  0  0  0  0  0  0
    0.6629   -0.8499   -2.0458 H   0  0  0  0  0  0  0  0  0  0  0  0
   -2.1613   -2.7801   -1.1099 H   0  0  0  0  0  0  0  0  0  0  0  0
   -1.1439   -2.3748   -2.4984 H   0  0  0  0  0  0  0  0  0  0  0  0
    4.2888   -3.7798   -0.0344 H   0  0  0  0  0  0  0  0  0  0  0  0
    4.7660   -2.0677    0.0171 H   0  0  0  0  0  0  0  0  0  0  0  0
    4.5708   -2.9817    1.5277 H   0  0  0  0  0  0  0  0  0  0  0  0
    0.5172   -2.5910    1.8320 H   0  0  0  0  0  0  0  0  0  0  0  0
    0.9257   -0.5603    2.7554 H   0  0  0  0  0  0  0  0  0  0  0  0
   -1.3615   -0.9138    2.4127 H   0  0  0  0  0  0  0  0  0  0  0  0
   -1.5529   -3.2050    2.1274 H   0  0  0  0  0  0  0  0  0  0  0  0
   -1.4192    0.5092    0.6581 H   0  0  0  0  0  0  0  0  0  0  0  0
   -4.1255   -2.2495    0.7829 H   0  0  0  0  0  0  0  0  0  0  0  0
   -5.2491   -1.1976   -0.0635 H   0  0  0  0  0  0  0  0  0  0  0  0
   -3.9326   -1.9351   -0.9289 H   0  0  0  0  0  0  0  0  0  0  0  0
   -3.6228   -0.5512    2.5231 H   0  0  0  0  0  0  0  0  0  0  0  0
   -3.0996    1.0660    2.0737 H   0  0  0  0  0  0  0  0  0  0  0  0
   -6.5465    2.6297   -1.4992 H   0  0  0  0  0  0  0  0  0  0  0  0
   -4.9078    2.8895   -2.0934 H   0  0  0  0  0  0  0  0  0  0  0  0
   -2.9745    1.7388   -0.3318 H   0  0  0  0  0  0  0  0  0  0  0  0
   -3.7744   -0.4019   -2.3579 H   0  0  0  0  0  0  0  0  0  0  0  0
   -3.4424    1.2614   -2.7592 H   0  0  0  0  0  0  0  0  0  0  0  0
   -1.4957   -0.2316   -3.0939 H   0  0  0  0  0  0  0  0  0  0  0  0
   -7.2459    1.7106    1.6796 H   0  0  0  0  0  0  0  0  0  0  0  0
   -5.7736    1.4342   -2.5357 H   0  0  0  0  0  0  0  0  0  0  0  0
  1  2  1  0
  1 40  1  0
  1 41  1  0
  1 42  1  0
  2  4  1  0
  2 43  1  6
  3  2  1  0
  3 44  1  0
  3 45  1  0
  3 46  1  0
  4  5  1  0
  5 47  1  0
  5 48  1  0
  5 49  1  0
  6  4  2  0
  6  7  1  0
  6 50  1  0
  7  9  1  0
  8  7  2  0
  9 10  1  0
 10 38  1  0
 10 11  1  0
 10 51  1  1
 11 12  1  0
 11 52  1  6
 12 13  1  6
 12 36  1  0
 13 53  1  0
 13 54  1  0
 14 13  1  0
 15 11  1  0
 15 14  1  0
 15 16  1  1
 16 17  2  0
 18 16  1  0
 19 18  1  0
 19 55  1  0
 19 56  1  0
 19 57  1  0
 20 15  1  0
 20 22  1  0
 20 58  1  1
 21 20  1  0
 21 59  1  0
 22 23  1  0
 22 24  1  0
 22 60  1  1
 23 61  1  0
 24 12  1  0
 24 25  1  0
 24 62  1  1
 25 34  1  0
 25 26  1  6
 26 63  1  0
 26 64  1  0
 26 65  1  0
 27 25  1  0
 27 28  1  0
 27 66  1  0
 27 67  1  0
 28 30  1  0
 29 28  2  0
 30 32  2  0
 30 31  1  0
 32 33  1  0
 33 68  1  0
 33 69  1  0
 34 32  1  0
 34 35  1  0
 34 70  1  1
 35 71  1  0
 35 72  1  0
 36 35  1  0
 36 73  1  6
 37 36  1  0
 38 37  1  0
 39 38  2  0
 31 74  1  0
 33 75  1  0
M  END
