
     RDKit          3D

 37 40  0  0  0  0  0  0  0  0999 V2000
    5.3882   -1.6932   -0.2749 C   0  0  0  0  0  0  0  0  0  0  0  0
   -2.5681   -2.2368   -1.3012 O   0  0  0  0  0  0  0  0  0  0  0  0
   -1.5935   -2.7672    1.4187 O   0  0  0  0  0  0  0  0  0  0  0  0
   -4.2060   -1.4531   -0.0064 O   0  0  0  0  0  0  0  0  0  0  0  0
   -0.1899   -3.8126    0.0347 O   0  0  0  0  0  0  0  0  0  0  0  0
    3.5300    2.0607   -0.0291 C   0  0  0  0  0  0  0  0  0  0  0  0
    4.1928    0.8359   -0.1191 C   0  0  0  0  0  0  0  0  0  0  0  0
    2.1597    2.1437    0.0509 C   0  0  0  0  0  0  0  0  0  0  0  0
   -2.9349    0.9804   -0.0449 C   0  0  0  0  0  0  0  0  0  0  0  0
    1.2818   -1.4745    0.0661 C   0  0  0  0  0  0  0  0  0  0  0  0
   -1.5649    4.2322    0.3868 C   0  0  0  0  0  0  0  0  0  0  0  0
    3.9808   -1.5573   -0.1994 O   0  0  0  0  0  0  0  0  0  0  0  0
   -2.6842    3.4067    0.1134 O   0  0  0  0  0  0  0  0  0  0  0  0
   -0.4114    3.4286    0.1592 O   0  0  0  0  0  0  0  0  0  0  0  0
   -2.9860   -1.4168   -0.5182 C   0  0  0  0  0  0  0  0  0  0  0  0
   -2.2112    2.1401    0.0883 C   0  0  0  0  0  0  0  0  0  0  0  0
    3.4531   -0.3285   -0.1190 C   0  0  0  0  0  0  0  0  0  0  0  0
   -2.2229   -0.2133   -0.1011 C   0  0  0  0  0  0  0  0  0  0  0  0
   -0.0728   -1.4727    0.1336 C   0  0  0  0  0  0  0  0  0  0  0  0
   -0.8362    2.1477    0.1176 C   0  0  0  0  0  0  0  0  0  0  0  0
    2.0379   -0.2723   -0.0276 C   0  0  0  0  0  0  0  0  0  0  0  0
    1.3797    0.9726    0.0429 C   0  0  0  0  0  0  0  0  0  0  0  0
   -0.8150   -0.2399    0.0286 C   0  0  0  0  0  0  0  0  0  0  0  0
   -0.0727    0.9795    0.0780 C   0  0  0  0  0  0  0  0  0  0  0  0
   -0.7235   -2.7326    0.5811 C   0  0  0  0  0  0  0  0  0  0  0  0
    5.8831   -1.2901    0.6121 H   0  0  0  0  0  0  0  0  0  0  0  0
    5.5891   -2.7592   -0.3369 H   0  0  0  0  0  0  0  0  0  0  0  0
    5.7941   -1.2036   -1.1630 H   0  0  0  0  0  0  0  0  0  0  0  0
   -4.7000   -2.1962   -0.3847 H   0  0  0  0  0  0  0  0  0  0  0  0
   -0.5741   -4.6081    0.4333 H   0  0  0  0  0  0  0  0  0  0  0  0
    4.1163    2.9701   -0.0262 H   0  0  0  0  0  0  0  0  0  0  0  0
    5.2712    0.8234   -0.1869 H   0  0  0  0  0  0  0  0  0  0  0  0
    1.7102    3.1195    0.1127 H   0  0  0  0  0  0  0  0  0  0  0  0
   -4.0103    1.0109   -0.1492 H   0  0  0  0  0  0  0  0  0  0  0  0
    1.8177   -2.4082    0.1571 H   0  0  0  0  0  0  0  0  0  0  0  0
   -1.5550    5.0864   -0.2882 H   0  0  0  0  0  0  0  0  0  0  0  0
   -1.5827    4.5606    1.4311 H   0  0  0  0  0  0  0  0  0  0  0  0
  1 12  1  0
  1 26  1  0
  1 27  1  0
  1 28  1  0
  2 15  2  0
  3 25  2  0
 15  4  1  0
  4 29  1  0
 25  5  1  0
  5 30  1  0
  7  6  2  0
  6  8  1  0
  6 31  1  0
  7 17  1  0
  7 32  1  0
  8 22  2  0
  8 33  1  0
 18  9  1  0
 16  9  2  0
  9 34  1  0
 21 10  1  0
 10 19  2  0
 10 35  1  0
 14 11  1  0
 11 13  1  0
 11 36  1  0
 11 37  1  0
 12 17  1  0
 16 13  1  0
 20 14  1  0
 18 15  1  0
 20 16  1  0
 17 21  2  0
 23 18  2  0
 19 25  1  0
 19 23  1  0
 24 20  2  0
 21 22  1  0
 22 24  1  0
 24 23  1  0
M  END
