
     RDKit          3D

 18 19  0  0  0  0  0  0  0  0999 V2000
    2.2301   -1.1362   -0.1595 C   0  0  0  0  0  0  0  0  0  0  0  0
    3.5085    0.8249   -0.0022 F   0  0  0  0  0  0  0  0  0  0  0  0
   -1.4773   -1.3695   -0.0339 N   0  0  0  0  0  0  0  0  0  0  0  0
   -3.5201   -0.3172    0.0104 O   0  0  0  0  0  0  0  0  0  0  0  0
    0.9892   -1.7699   -0.1717 C   0  0  0  0  0  0  0  0  0  0  0  0
   -1.7080    1.9797   -0.5836 O   0  0  0  0  0  0  0  0  0  0  0  0
   -0.1377   -0.9856   -0.0280 C   0  0  0  0  0  0  0  0  0  0  0  0
   -0.0501    0.3941    0.1358 C   0  0  0  0  0  0  0  0  0  0  0  0
    1.1725    1.0294    0.1460 C   0  0  0  0  0  0  0  0  0  0  0  0
    2.2995    0.2346   -0.0057 C   0  0  0  0  0  0  0  0  0  0  0  0
   -1.4322    0.9419    0.3079 C   0  0  2  0  0  0  0  0  0  0  0  0
   -2.3107   -0.3033    0.0753 C   0  0  0  0  0  0  0  0  0  0  0  0
    3.1367   -1.7156   -0.2738 H   0  0  0  0  0  0  0  0  0  0  0  0
   -1.7962   -2.3113   -0.2062 H   0  0  0  0  0  0  0  0  0  0  0  0
    0.9244   -2.8422   -0.2961 H   0  0  0  0  0  0  0  0  0  0  0  0
   -2.5494    2.3779   -0.3368 H   0  0  0  0  0  0  0  0  0  0  0  0
    1.2597    2.1015    0.2687 H   0  0  0  0  0  0  0  0  0  0  0  0
   -1.5811    1.2470    1.3544 H   0  0  0  0  0  0  0  0  0  0  0  0
  1  5  2  0
  1 10  1  0
  2 10  1  0
  3  7  1  0
  3 12  1  0
  4 12  2  0
  5  7  1  0
  6 11  1  0
  7  8  2  0
  8  9  1  0
  8 11  1  0
  9 10  2  0
 11 12  1  0
  1 13  1  0
  3 14  1  0
  5 15  1  0
  6 16  1  0
  9 17  1  0
 11 18  1  1
M  END
