
     RDKit          3D

 34 36  0  0  0  0  0  0  0  0999 V2000
   -0.0753   -0.1569    5.7312 O   0  0  0  0  0  0  0  0  0  0  0  0
    0.0098    0.4024    4.5283 C   0  0  0  0  0  0  0  0  0  0  0  0
    0.0914    1.5934    4.3601 O   0  0  0  0  0  0  0  0  0  0  0  0
   -0.0002   -0.6285    3.4343 C   0  0  0  0  0  0  0  0  0  0  0  0
   -0.0041   -0.0308    2.0378 C   0  0  0  0  0  0  0  0  0  0  0  0
   -0.0061   -1.1349    0.9877 C   0  0  0  0  0  0  0  0  0  0  0  0
   -0.0022   -0.6304   -0.3633 N   0  0  0  0  0  0  0  0  0  0  0  0
   -1.1171   -0.3203   -1.1052 C   0  0  0  0  0  0  0  0  0  0  0  0
   -2.4632   -0.4506   -0.7733 C   0  0  0  0  0  0  0  0  0  0  0  0
   -0.7146    0.1831   -2.3591 C   0  0  0  0  0  0  0  0  0  0  0  0
   -1.6737    0.5496   -3.2997 C   0  0  0  0  0  0  0  0  0  0  0  0
   -3.0135    0.4161   -2.9772 C   0  0  0  0  0  0  0  0  0  0  0  0
   -3.3982   -0.0774   -1.7248 C   0  0  0  0  0  0  0  0  0  0  0  0
    0.7253    0.1856   -2.3528 C   0  0  0  0  0  0  0  0  0  0  0  0
    1.1182   -0.3163   -1.0953 C   0  0  0  0  0  0  0  0  0  0  0  0
    2.4617   -0.4420   -0.7510 C   0  0  0  0  0  0  0  0  0  0  0  0
    1.6916    0.5587   -3.2833 C   0  0  0  0  0  0  0  0  0  0  0  0
    3.0289    0.4302   -2.9485 C   0  0  0  0  0  0  0  0  0  0  0  0
    3.4038   -0.0644   -1.6935 C   0  0  0  0  0  0  0  0  0  0  0  0
   -0.0510    0.5269    6.4170 H   0  0  0  0  0  0  0  0  0  0  0  0
   -0.8667   -1.2809    3.5799 H   0  0  0  0  0  0  0  0  0  0  0  0
    0.8742   -1.2734    3.5733 H   0  0  0  0  0  0  0  0  0  0  0  0
    0.8729    0.6048    1.8971 H   0  0  0  0  0  0  0  0  0  0  0  0
   -0.8823    0.6052    1.9018 H   0  0  0  0  0  0  0  0  0  0  0  0
   -0.8787   -1.7792    1.1106 H   0  0  0  0  0  0  0  0  0  0  0  0
    0.8630   -1.7834    1.1134 H   0  0  0  0  0  0  0  0  0  0  0  0
   -2.7810   -0.8301    0.1893 H   0  0  0  0  0  0  0  0  0  0  0  0
   -1.3760    0.9334   -4.2678 H   0  0  0  0  0  0  0  0  0  0  0  0
   -3.7722    0.6965   -3.6960 H   0  0  0  0  0  0  0  0  0  0  0  0
   -4.4509   -0.1673   -1.4901 H   0  0  0  0  0  0  0  0  0  0  0  0
    2.7718   -0.8157    0.2165 H   0  0  0  0  0  0  0  0  0  0  0  0
    1.4013    0.9438   -4.2532 H   0  0  0  0  0  0  0  0  0  0  0  0
    3.7931    0.7138   -3.6600 H   0  0  0  0  0  0  0  0  0  0  0  0
    4.4547   -0.1525   -1.4502 H   0  0  0  0  0  0  0  0  0  0  0  0
  1  2  1  0
  1 20  1  0
  2  3  2  0
  2  4  1  0
  4  5  1  0
  4 21  1  0
  4 22  1  0
  5  6  1  0
  5 23  1  0
  5 24  1  0
  6  7  1  0
  6 25  1  0
  6 26  1  0
  7  8  1  0
  7 15  1  0
  8  9  2  0
  8 10  1  0
  9 13  1  0
  9 27  1  0
 10 11  2  0
 10 14  1  0
 11 12  1  0
 11 28  1  0
 12 13  2  0
 12 29  1  0
 13 30  1  0
 14 15  2  0
 14 17  1  0
 15 16  1  0
 16 19  2  0
 16 31  1  0
 17 18  2  0
 17 32  1  0
 18 19  1  0
 18 33  1  0
 19 34  1  0
M  END
