
     RDKit          3D

 55 58  0  0  0  0  0  0  0  0999 V2000
    4.4387    1.2881   -3.4127 C   0  0  0  0  0  0  0  0  0  0  0  0
    3.3583    0.9058   -2.4594 C   0  0  0  0  0  0  0  0  0  0  0  0
    2.1186    0.4504   -2.7869 C   0  0  0  0  0  0  0  0  0  0  0  0
    1.3959    0.2232   -1.6252 N   0  0  0  0  0  0  0  0  0  0  0  0
    2.1704    0.5219   -0.5523 C   0  0  0  0  0  0  0  0  0  0  0  0
    3.3941    0.9501   -1.0271 C   0  0  0  0  0  0  0  0  0  0  0  0
    4.4672    1.3000   -0.1217 C   0  0  0  0  0  0  0  0  0  0  0  0
    5.5759    1.6446   -0.4986 O   0  0  0  0  0  0  0  0  0  0  0  0
    4.1088    1.2474    1.3502 C   0  0  0  0  0  0  0  0  0  0  0  0
    3.0782    0.1729    1.7302 C   0  0  1  0  0  0  0  0  0  0  0  0
    3.6580   -1.2252    1.5079 C   0  0  0  0  0  0  0  0  0  0  0  0
    2.7086    0.3319    3.2027 C   0  0  0  0  0  0  0  0  0  0  0  0
    1.8110    0.3714    0.8814 C   0  0  0  0  0  0  0  0  0  0  0  0
    0.0893   -0.3016   -1.5918 C   0  0  0  0  0  0  0  0  0  0  0  0
   -0.8508    0.2732   -0.7561 C   0  0  0  0  0  0  0  0  0  0  0  0
   -2.1485   -0.2563   -0.6620 C   0  0  0  0  0  0  0  0  0  0  0  0
   -3.0605    0.3007    0.1723 N   0  0  0  0  0  0  0  0  0  0  0  0
   -2.7849    1.3973    1.0724 C   0  0  1  0  0  0  0  0  0  0  0  0
   -4.0687    1.8075    1.7843 C   0  0  0  0  0  0  0  0  0  0  0  0
   -4.1610    0.7763    2.9034 C   0  0  0  0  0  0  0  0  0  0  0  0
   -2.8223    0.4196    3.2185 O   0  0  0  0  0  0  0  0  0  0  0  0
   -1.9314    0.9826    2.2728 C   0  0  0  0  0  0  0  0  0  0  0  0
   -2.4853   -1.3564   -1.4860 C   0  0  0  0  0  0  0  0  0  0  0  0
   -3.8638   -1.9420   -1.5364 C   0  0  0  0  0  0  0  0  0  0  0  0
   -4.3365   -2.3712   -0.3531 N   0  0  0  0  0  0  0  0  0  0  0  0
   -4.5015   -1.9933   -2.5737 O   0  0  0  0  0  0  0  0  0  0  0  0
   -1.5129   -1.8624   -2.3298 C   0  0  0  0  0  0  0  0  0  0  0  0
   -1.8289   -2.9196   -3.0871 F   0  0  0  0  0  0  0  0  0  0  0  0
   -0.2207   -1.3882   -2.3996 C   0  0  0  0  0  0  0  0  0  0  0  0
    5.3253    0.6661   -3.2840 H   0  0  0  0  0  0  0  0  0  0  0  0
    4.1004    1.1796   -4.4427 H   0  0  0  0  0  0  0  0  0  0  0  0
    4.7537    2.3220   -3.2697 H   0  0  0  0  0  0  0  0  0  0  0  0
    1.6675    0.2931   -3.7537 H   0  0  0  0  0  0  0  0  0  0  0  0
    5.0238    1.1237    1.9348 H   0  0  0  0  0  0  0  0  0  0  0  0
    3.7068    2.2358    1.6106 H   0  0  0  0  0  0  0  0  0  0  0  0
    4.5464   -1.3753    2.1241 H   0  0  0  0  0  0  0  0  0  0  0  0
    2.9313   -1.9909    1.7863 H   0  0  0  0  0  0  0  0  0  0  0  0
    3.9412   -1.4028    0.4694 H   0  0  0  0  0  0  0  0  0  0  0  0
    2.2996    1.3243    3.4035 H   0  0  0  0  0  0  0  0  0  0  0  0
    1.9597   -0.4049    3.5006 H   0  0  0  0  0  0  0  0  0  0  0  0
    3.5823    0.1946    3.8420 H   0  0  0  0  0  0  0  0  0  0  0  0
    1.2930    1.2731    1.2302 H   0  0  0  0  0  0  0  0  0  0  0  0
    1.1202   -0.4626    1.0319 H   0  0  0  0  0  0  0  0  0  0  0  0
   -0.5818    1.1588   -0.1991 H   0  0  0  0  0  0  0  0  0  0  0  0
   -4.0004   -0.0599    0.1621 H   0  0  0  0  0  0  0  0  0  0  0  0
   -2.3360    2.2356    0.5329 H   0  0  0  0  0  0  0  0  0  0  0  0
   -3.9480    2.8130    2.1889 H   0  0  0  0  0  0  0  0  0  0  0  0
   -4.9420    1.8143    1.1319 H   0  0  0  0  0  0  0  0  0  0  0  0
   -4.6600    1.1725    3.7904 H   0  0  0  0  0  0  0  0  0  0  0  0
   -4.7154   -0.1131    2.5814 H   0  0  0  0  0  0  0  0  0  0  0  0
   -1.1641    0.2458    2.0203 H   0  0  0  0  0  0  0  0  0  0  0  0
   -1.4268    1.8652    2.6849 H   0  0  0  0  0  0  0  0  0  0  0  0
   -3.7275   -2.4984    0.4385 H   0  0  0  0  0  0  0  0  0  0  0  0
   -5.2398   -2.8177   -0.3074 H   0  0  0  0  0  0  0  0  0  0  0  0
    0.5131   -1.8682   -3.0319 H   0  0  0  0  0  0  0  0  0  0  0  0
 21 22  1  0
 21 20  1  0
 22 18  1  0
 20 19  1  0
 18 19  1  0
 18 17  1  0
 17 16  1  0
  1  2  1  0
  3  2  2  0
  3  4  1  0
 16 15  2  0
 16 23  1  0
 15 14  1  0
  2  6  1  0
 26 24  2  0
 14  4  1  0
 14 29  2  0
  4  5  1  0
 23 24  1  0
 23 27  2  0
 24 25  1  0
  6  5  2  0
  6  7  1  0
  5 13  1  0
 29 27  1  0
 27 28  1  0
  8  7  2  0
  7  9  1  0
 13 10  1  0
 10 11  1  1
  9 10  1  0
 10 12  1  0
  1 30  1  0
  1 31  1  0
  1 32  1  0
  3 33  1  0
  9 34  1  0
  9 35  1  0
 11 36  1  0
 11 37  1  0
 11 38  1  0
 12 39  1  0
 12 40  1  0
 12 41  1  0
 13 42  1  0
 13 43  1  0
 15 44  1  0
 17 45  1  0
 18 46  1  6
 19 47  1  0
 19 48  1  0
 20 49  1  0
 20 50  1  0
 22 51  1  0
 22 52  1  0
 25 53  1  0
 25 54  1  0
 29 55  1  0
M  END
