
     RDKit          3D

 29 30  0  0  0  0  0  0  0  0999 V2000
    4.0965   -0.6144    0.0558 N   0  0  0  0  0  0  0  0  0  0  0  0
   -3.6366   -0.3207    0.1513 N   0  0  0  0  0  0  0  0  0  0  0  0
    2.2433    0.9475   -0.4154 C   0  0  0  0  0  0  0  0  0  0  0  0
    0.8768    1.1322   -0.5235 C   0  0  0  0  0  0  0  0  0  0  0  0
   -0.0218    0.0951   -0.2902 C   0  0  0  0  0  0  0  0  0  0  0  0
    0.4863   -1.1628    0.0352 C   0  0  0  0  0  0  0  0  0  0  0  0
    1.8469   -1.3629    0.1358 C   0  0  0  0  0  0  0  0  0  0  0  0
   -4.4892   -0.9051   -0.7265 C   0  0  0  0  0  0  0  0  0  0  0  0
   -4.3990    0.5308    0.8822 C   0  0  0  0  0  0  0  0  0  0  0  0
    5.1849    0.1946   -0.0847 C   0  0  0  0  0  0  0  0  0  0  0  0
    2.7469   -0.3133   -0.0799 C   0  0  0  0  0  0  0  0  0  0  0  0
   -2.2957   -0.5026    0.2217 N   0  0  0  0  0  0  0  0  0  0  0  0
   -5.6879   -0.4531   -0.5308 N   0  0  0  0  0  0  0  0  0  0  0  0
   -5.6308    0.4545    0.4869 N   0  0  0  0  0  0  0  0  0  0  0  0
    5.1166    1.3733   -0.3778 O   0  0  0  0  0  0  0  0  0  0  0  0
   -1.9138    1.3050   -1.0682 O   0  0  0  0  0  0  0  0  0  0  0  0
    4.2902   -1.5734    0.3006 H   0  0  0  0  0  0  0  0  0  0  0  0
    2.9023    1.7805   -0.5921 H   0  0  0  0  0  0  0  0  0  0  0  0
    0.5063    2.1136   -0.7877 H   0  0  0  0  0  0  0  0  0  0  0  0
   -0.1650   -2.0137    0.1878 H   0  0  0  0  0  0  0  0  0  0  0  0
    2.2201   -2.3491    0.3829 H   0  0  0  0  0  0  0  0  0  0  0  0
   -4.1777   -1.6352   -1.4565 H   0  0  0  0  0  0  0  0  0  0  0  0
    6.4173   -1.5512    0.3891 H   0  0  0  0  0  0  0  0  0  0  0  0
    7.1349   -0.3795   -0.7213 H   0  0  0  0  0  0  0  0  0  0  0  0
    7.0126    0.0007    0.9883 H   0  0  0  0  0  0  0  0  0  0  0  0
   -4.0049    1.1528    1.6704 H   0  0  0  0  0  0  0  0  0  0  0  0
   -1.9705   -1.1405    0.9324 H   0  0  0  0  0  0  0  0  0  0  0  0
   -1.4685    0.3753   -0.4287 C   0  0  0  0  0  0  0  0  0  0  0  0
    6.5035   -0.4914    0.1596 C   0  0  0  0  0  0  0  0  0  0  0  0
 14 13  1  0
 14  9  2  0
 13  8  2  0
  9  2  1  0
  8  2  1  0
  2 12  1  0
 12 28  1  0
 28 16  2  0
 28  5  1  0
  5  4  1  0
  5  6  2  0
  4  3  2  0
  6  7  1  0
  3 11  1  0
  7 11  2  0
 11  1  1  0
  1 10  1  0
 10 15  2  0
 10 29  1  0
  1 17  1  0
  3 18  1  0
  4 19  1  0
  6 20  1  0
  7 21  1  0
  8 22  1  0
 29 23  1  0
 29 24  1  0
 29 25  1  0
  9 26  1  0
 12 27  1  0
M  END
