
     RDKit          3D

 42 45  0  0  0  0  0  0  0  0999 V2000
   -7.2089   -1.4003    1.0699 C   0  0  0  0  0  0  0  0  0  0  0  0
   -6.3277   -1.6379   -0.1559 C   0  0  1  0  0  0  0  0  0  0  0  0
   -7.1410   -1.5305   -1.4456 C   0  0  0  0  0  0  0  0  0  0  0  0
   -5.1458   -0.6986   -0.1686 C   0  0  0  0  0  0  0  0  0  0  0  0
   -5.3262    0.6881   -0.2719 C   0  0  0  0  0  0  0  0  0  0  0  0
   -4.2573    1.5601   -0.2864 C   0  0  0  0  0  0  0  0  0  0  0  0
   -2.9685    1.0490   -0.1936 C   0  0  0  0  0  0  0  0  0  0  0  0
   -0.6837    1.5514   -0.1350 C   0  0  0  0  0  0  0  0  0  0  0  0
    1.4884    2.2534   -0.0888 C   0  0  0  0  0  0  0  0  0  0  0  0
    1.9611    0.8964   -0.0006 C   0  0  0  0  0  0  0  0  0  0  0  0
    1.0035   -0.0939    0.0442 C   0  0  0  0  0  0  0  0  0  0  0  0
   -0.3555    0.1956   -0.0220 C   0  0  0  0  0  0  0  0  0  0  0  0
   -1.3791   -0.8366    0.0184 C   0  0  0  0  0  0  0  0  0  0  0  0
   -2.7490   -0.3199   -0.0837 C   0  0  0  0  0  0  0  0  0  0  0  0
   -3.8539   -1.1773   -0.0735 C   0  0  0  0  0  0  0  0  0  0  0  0
    3.4019    0.6026    0.0667 C   0  0  0  0  0  0  0  0  0  0  0  0
    5.0605   -1.1518   -0.0356 C   0  0  0  0  0  0  0  0  0  0  0  0
    0.1822    2.5278   -0.1649 N   0  0  0  0  0  0  0  0  0  0  0  0
    2.3009    3.3010   -0.1150 N   0  0  0  0  0  0  0  0  0  0  0  0
    3.7753   -0.7007   -0.1189 N   0  0  0  0  0  0  0  0  0  0  0  0
    6.1629   -0.4501    0.2232 N   0  0  0  0  0  0  0  0  0  0  0  0
    7.1975   -1.2851    0.2119 N   0  0  0  0  0  0  0  0  0  0  0  0
    6.7303   -2.4375   -0.0436 N   0  0  0  0  0  0  0  0  0  0  0  0
    5.4073   -2.4057   -0.2057 N   0  0  0  0  0  0  0  0  0  0  0  0
   -1.9544    1.9543   -0.2160 O   0  0  0  0  0  0  0  0  0  0  0  0
   -1.1229   -2.0254    0.1240 O   0  0  0  0  0  0  0  0  0  0  0  0
    4.2499    1.4583    0.2706 O   0  0  0  0  0  0  0  0  0  0  0  0
   -8.0227   -2.1262    1.1045 H   0  0  0  0  0  0  0  0  0  0  0  0
   -6.6385   -1.4903    1.9951 H   0  0  0  0  0  0  0  0  0  0  0  0
   -7.6567   -0.4046    1.0494 H   0  0  0  0  0  0  0  0  0  0  0  0
   -5.9311   -2.6554   -0.0932 H   0  0  0  0  0  0  0  0  0  0  0  0
   -6.5214   -1.7117   -2.3245 H   0  0  0  0  0  0  0  0  0  0  0  0
   -7.9511   -2.2614   -1.4486 H   0  0  0  0  0  0  0  0  0  0  0  0
   -7.5921   -0.5418   -1.5523 H   0  0  0  0  0  0  0  0  0  0  0  0
   -6.3264    1.0980   -0.3434 H   0  0  0  0  0  0  0  0  0  0  0  0
   -4.4117    2.6280   -0.3687 H   0  0  0  0  0  0  0  0  0  0  0  0
    1.2726   -1.1371    0.1505 H   0  0  0  0  0  0  0  0  0  0  0  0
   -3.6809   -2.2436    0.0116 H   0  0  0  0  0  0  0  0  0  0  0  0
    3.2945    3.1934   -0.0010 H   0  0  0  0  0  0  0  0  0  0  0  0
    1.9045    4.2250   -0.1612 H   0  0  0  0  0  0  0  0  0  0  0  0
    3.1019   -1.4084   -0.3706 H   0  0  0  0  0  0  0  0  0  0  0  0
    6.2730    0.5395    0.3930 H   0  0  0  0  0  0  0  0  0  0  0  0
 27 16  2  0
 19  9  1  0
 16 20  1  0
 16 10  1  0
 20 17  1  0
  9 10  2  0
  9 18  1  0
 10 11  1  0
 18  8  2  0
 17 24  2  0
 17 21  1  0
 24 23  1  0
 11 12  2  0
 21 22  1  0
  8 12  1  0
  8 25  1  0
 12 13  1  0
 23 22  2  0
 25  7  1  0
 13 26  2  0
 13 14  1  0
  7 14  2  0
  7  6  1  0
 14 15  1  0
  6  5  2  0
 15  4  2  0
  5  4  1  0
  4  2  1  0
  2  3  1  0
  2  1  1  0
  1 28  1  0
  1 29  1  0
  1 30  1  0
  2 31  1  1
  3 32  1  0
  3 33  1  0
  3 34  1  0
  5 35  1  0
  6 36  1  0
 11 37  1  0
 15 38  1  0
 19 39  1  0
 19 40  1  0
 20 41  1  0
 21 42  1  0
M  END
