
     RDKit          3D

 68 71  0  0  0  0  0  0  0  0999 V2000
   -6.0156    2.6759   -1.3980 C   0  0  0  0  0  0  0  0  0  0  0  0
   -5.3876    3.9089   -1.4340 C   0  0  0  0  0  0  0  0  0  0  0  0
   -5.4538    1.6503   -0.6542 C   0  0  0  0  0  0  0  0  0  0  0  0
   -4.2147    4.0996   -0.7183 C   0  0  0  0  0  0  0  0  0  0  0  0
    2.4221    2.9855    0.5275 C   0  0  0  0  0  0  0  0  0  0  0  0
    3.5661    2.2319    0.3154 C   0  0  0  0  0  0  0  0  0  0  0  0
   -4.2697    1.8341    0.0619 C   0  0  0  0  0  0  0  0  0  0  0  0
    1.1496    0.9847    0.8577 C   0  0  0  0  0  0  0  0  0  0  0  0
   -3.6381    3.0878    0.0447 C   0  0  0  0  0  0  0  0  0  0  0  0
    1.2042    2.3787    0.8027 C   0  0  0  0  0  0  0  0  0  0  0  0
    3.5114    0.8489    0.3711 C   0  0  0  0  0  0  0  0  0  0  0  0
    2.2916    0.2201    0.6386 C   0  0  0  0  0  0  0  0  0  0  0  0
   -3.7726    0.6854    0.8805 C   0  0  0  0  0  0  0  0  0  0  0  0
    8.1325   -2.1328   -0.9144 C   0  0  0  0  0  0  0  0  0  0  0  0
   -3.9757   -5.0522   -1.6888 C   0  0  0  0  0  0  0  0  0  0  0  0
   -5.0516   -4.6998   -0.8853 C   0  0  0  0  0  0  0  0  0  0  0  0
   -2.7862   -4.3393   -1.6010 C   0  0  0  0  0  0  0  0  0  0  0  0
   -4.9368   -3.6382    0.0030 C   0  0  0  0  0  0  0  0  0  0  0  0
   -2.6739   -3.2792   -0.7126 C   0  0  0  0  0  0  0  0  0  0  0  0
    3.4348   -1.8027    0.8543 C   0  0  0  0  0  0  0  0  0  0  0  0
   -3.7481   -2.9213    0.0991 C   0  0  0  0  0  0  0  0  0  0  0  0
    4.4565   -1.2444   -0.1149 C   0  0  2  0  0  0  0  0  0  0  0  0
   -2.3690    3.4210    0.7893 C   0  0  0  0  0  0  0  0  0  0  0  0
   -0.0249    3.2161    1.0366 C   0  0  0  0  0  0  0  0  0  0  0  0
   -0.9838    2.9528   -1.1413 C   0  0  0  0  0  0  0  0  0  0  0  0
   -3.6314   -1.7541    1.0381 C   0  0  0  0  0  0  0  0  0  0  0  0
    5.7956   -1.9405    0.0115 C   0  0  0  0  0  0  0  0  0  0  0  0
   -3.8979   -0.5182    0.3202 N   0  0  0  0  0  0  0  0  0  0  0  0
   -1.1775    2.7575    0.2803 N   0  0  0  0  0  0  0  0  0  0  0  0
   -0.6379   -0.4684    0.2869 O   0  0  0  0  0  0  0  0  0  0  0  0
    9.0169   -1.6244   -1.7666 O   0  0  0  0  0  0  0  0  0  0  0  0
   -3.3341    0.8294    2.0255 O   0  0  0  0  0  0  0  0  0  0  0  0
   -0.6715    0.5792    2.2670 O   0  0  0  0  0  0  0  0  0  0  0  0
    8.3681   -3.0834   -0.2111 O   0  0  0  0  0  0  0  0  0  0  0  0
    2.1955   -1.1243    0.7189 O   0  0  0  0  0  0  0  0  0  0  0  0
    4.6436    0.1413    0.1570 O   0  0  0  0  0  0  0  0  0  0  0  0
   -6.9394    2.5095   -1.9356 H   0  0  0  0  0  0  0  0  0  0  0  0
   -5.8063    4.7221   -2.0120 H   0  0  0  0  0  0  0  0  0  0  0  0
   -5.9708    0.6999   -0.6129 H   0  0  0  0  0  0  0  0  0  0  0  0
   -3.7295    5.0675   -0.7496 H   0  0  0  0  0  0  0  0  0  0  0  0
    2.4787    4.0650    0.4630 H   0  0  0  0  0  0  0  0  0  0  0  0
    4.5104    2.7143    0.0958 H   0  0  0  0  0  0  0  0  0  0  0  0
   -4.0613   -5.8815   -2.3789 H   0  0  0  0  0  0  0  0  0  0  0  0
   -5.9801   -5.2525   -0.9477 H   0  0  0  0  0  0  0  0  0  0  0  0
   -1.9437   -4.6119   -2.2235 H   0  0  0  0  0  0  0  0  0  0  0  0
   -5.7773   -3.3688    0.6320 H   0  0  0  0  0  0  0  0  0  0  0  0
   -1.7454   -2.7254   -0.6443 H   0  0  0  0  0  0  0  0  0  0  0  0
    3.2420   -2.8535    0.6429 H   0  0  0  0  0  0  0  0  0  0  0  0
    3.8005   -1.7162    1.8837 H   0  0  0  0  0  0  0  0  0  0  0  0
    4.0759   -1.3593   -1.1391 H   0  0  0  0  0  0  0  0  0  0  0  0
   -2.2505    4.5160    0.7480 H   0  0  0  0  0  0  0  0  0  0  0  0
   -2.4721    3.1606    1.8433 H   0  0  0  0  0  0  0  0  0  0  0  0
   -0.2837    3.1876    2.0981 H   0  0  0  0  0  0  0  0  0  0  0  0
    0.2174    4.2672    0.8079 H   0  0  0  0  0  0  0  0  0  0  0  0
   -0.0837    2.4316   -1.4666 H   0  0  0  0  0  0  0  0  0  0  0  0
   -1.8202    2.5383   -1.7025 H   0  0  0  0  0  0  0  0  0  0  0  0
   -0.8778    4.0121   -1.4228 H   0  0  0  0  0  0  0  0  0  0  0  0
    7.0439   -0.3295   -0.7329 H   0  0  0  0  0  0  0  0  0  0  0  0
    6.4567   -1.4001   -1.9780 H   0  0  0  0  0  0  0  0  0  0  0  0
   -4.3428   -1.8573    1.8610 H   0  0  0  0  0  0  0  0  0  0  0  0
   -2.6327   -1.7214    1.4725 H   0  0  0  0  0  0  0  0  0  0  0  0
    6.1509   -1.8685    1.0424 H   0  0  0  0  0  0  0  0  0  0  0  0
    5.6340   -3.0003   -0.1966 H   0  0  0  0  0  0  0  0  0  0  0  0
   -4.1601   -0.5855   -0.6501 H   0  0  0  0  0  0  0  0  0  0  0  0
    9.8433   -2.1282   -1.7255 H   0  0  0  0  0  0  0  0  0  0  0  0
   -1.6459    0.4229    2.2671 H   0  0  0  0  0  0  0  0  0  0  0  0
   -0.1520    0.2924    1.0871 C   0  0  0  0  0  0  0  0  0  0  0  0
    6.8319   -1.3796   -0.9498 C   0  0  0  0  0  0  0  0  0  0  0  0
 34 14  2  0
 14 68  1  0
 14 31  1  0
 68 27  1  0
 27 22  1  0
 36 22  1  0
 36 11  1  0
 22 20  1  0
  6 11  1  0
  6  5  2  0
 11 12  2  0
 20 35  1  0
  5 10  1  0
 12 35  1  0
 12  8  1  0
 17 15  2  0
 17 19  1  0
 25 29  1  0
 15 16  1  0
 10  8  2  0
 10 24  1  0
  8 67  1  0
 19 21  2  0
 29 24  1  0
 29 23  1  0
 16 18  2  0
 67 30  2  0
 67 33  1  0
 23  9  1  0
 21 18  1  0
 21 26  1  0
 32 13  2  0
 26 28  1  0
  9  4  2  0
  9  7  1  0
 13 28  1  0
 13  7  1  0
  4  2  1  0
  7  3  2  0
  2  1  2  0
  3  1  1  0
  1 37  1  0
  2 38  1  0
  3 39  1  0
  4 40  1  0
  5 41  1  0
  6 42  1  0
 15 43  1  0
 16 44  1  0
 17 45  1  0
 18 46  1  0
 19 47  1  0
 20 48  1  0
 20 49  1  0
 22 50  1  6
 23 51  1  0
 23 52  1  0
 24 53  1  0
 24 54  1  0
 25 55  1  0
 25 56  1  0
 25 57  1  0
 68 58  1  0
 68 59  1  0
 26 60  1  0
 26 61  1  0
 27 62  1  0
 27 63  1  0
 28 64  1  0
 31 65  1  0
 33 66  1  0
M  END
