
     RDKit          3D

 65 69  0  0  0  0  0  0  0  0999 V2000
    0.1071    0.2808    3.4151 N   0  0  0  0  0  0  0  0  0  0  0  0
    1.5560    0.7856    1.5396 C   0  0  0  0  0  0  0  0  0  0  0  0
    1.7333    1.1346    0.2211 C   0  0  0  0  0  0  0  0  0  0  0  0
    0.6299    1.3170   -0.6095 C   0  0  0  0  0  0  0  0  0  0  0  0
   -0.6481    1.1397   -0.0992 C   0  0  0  0  0  0  0  0  0  0  0  0
    0.4937    0.0442   -7.4905 N   0  0  0  0  0  0  0  0  0  0  0  0
    0.0748   -0.7856   -3.0520 C   0  0  1  0  0  0  0  0  0  0  0  0
   -0.2483   -0.0293   10.4586 C   0  0  0  0  0  0  0  0  0  0  0  0
   -0.2813   -0.5676    6.1808 C   0  0  2  0  0  0  0  0  0  0  0  0
   -0.7235   -1.2089    9.9029 C   0  0  0  0  0  0  0  0  0  0  0  0
    2.1018    2.4062   -2.4854 O   0  0  0  0  0  0  0  0  0  0  0  0
   -0.3882    2.2133   -2.8236 O   0  0  0  0  0  0  0  0  0  0  0  0
    0.2683    0.5961    2.0866 C   0  0  0  0  0  0  0  0  0  0  0  0
   -0.8264    0.7797    1.2230 C   0  0  0  0  0  0  0  0  0  0  0  0
    1.1051   -0.4435    5.5506 C   0  0  0  0  0  0  0  0  0  0  0  0
   -1.2144    0.4206    5.4834 C   0  0  0  0  0  0  0  0  0  0  0  0
   -1.2325    0.2218    3.9748 C   0  0  0  0  0  0  0  0  0  0  0  0
    1.0366   -0.6495    4.0475 C   0  0  0  0  0  0  0  0  0  0  0  0
   -0.7286   -1.3767    8.5235 C   0  0  0  0  0  0  0  0  0  0  0  0
   -0.2618   -0.3761    7.6750 C   0  0  0  0  0  0  0  0  0  0  0  0
    0.2139    0.8042    8.2466 C   0  0  0  0  0  0  0  0  0  0  0  0
    0.2216    0.9772    9.6234 C   0  0  0  0  0  0  0  0  0  0  0  0
    1.1003    0.2314   -3.0882 N   0  0  0  0  0  0  0  0  0  0  0  0
    0.2292   -1.7209   -4.2700 C   0  0  0  0  0  0  0  0  0  0  0  0
    0.0554   -1.6369   -1.7897 C   0  0  0  0  0  0  0  0  0  0  0  0
   -0.9446   -2.1599   -1.3692 O   0  0  0  0  0  0  0  0  0  0  0  0
    1.2570   -1.7906   -1.2596 O   0  0  0  0  0  0  0  0  0  0  0  0
   -3.1420    0.6602   -7.6898 C   0  0  0  0  0  0  0  0  0  0  0  0
   -1.8319    0.7264   -8.1247 C   0  0  0  0  0  0  0  0  0  0  0  0
   -0.8570    0.1367   -7.3216 C   0  0  0  0  0  0  0  0  0  0  0  0
   -1.1742   -0.5112   -6.1069 C   0  0  0  0  0  0  0  0  0  0  0  0
   -2.5101   -0.5619   -5.6922 C   0  0  0  0  0  0  0  0  0  0  0  0
   -3.4794    0.0218   -6.4847 C   0  0  0  0  0  0  0  0  0  0  0  0
    1.0359   -0.6320   -6.4352 C   0  0  0  0  0  0  0  0  0  0  0  0
    0.0558   -0.9981   -5.5581 C   0  0  0  0  0  0  0  0  0  0  0  0
    2.4356    0.6916    2.1597 H   0  0  0  0  0  0  0  0  0  0  0  0
    2.7391    1.2799   -0.1505 H   0  0  0  0  0  0  0  0  0  0  0  0
   -1.5207    1.2671   -0.7259 H   0  0  0  0  0  0  0  0  0  0  0  0
   -0.8988   -0.2972   -3.1229 H   0  0  0  0  0  0  0  0  0  0  0  0
   -0.2423    0.1060   11.5325 H   0  0  0  0  0  0  0  0  0  0  0  0
   -0.6513   -1.5798    5.9767 H   0  0  0  0  0  0  0  0  0  0  0  0
   -1.0910   -2.0020   10.5418 H   0  0  0  0  0  0  0  0  0  0  0  0
   -1.8379    0.6224    1.5658 H   0  0  0  0  0  0  0  0  0  0  0  0
    1.5260    0.5436    5.7627 H   0  0  0  0  0  0  0  0  0  0  0  0
    1.7870   -1.1837    5.9744 H   0  0  0  0  0  0  0  0  0  0  0  0
   -0.8970    1.4443    5.7029 H   0  0  0  0  0  0  0  0  0  0  0  0
   -2.2356    0.3133    5.8551 H   0  0  0  0  0  0  0  0  0  0  0  0
   -1.8390    1.0154    3.5416 H   0  0  0  0  0  0  0  0  0  0  0  0
   -1.7183   -0.7330    3.7255 H   0  0  0  0  0  0  0  0  0  0  0  0
    0.7211   -1.6811    3.8356 H   0  0  0  0  0  0  0  0  0  0  0  0
    2.0324   -0.5319    3.6295 H   0  0  0  0  0  0  0  0  0  0  0  0
   -1.1024   -2.3014    8.0993 H   0  0  0  0  0  0  0  0  0  0  0  0
    0.5866    1.6024    7.6149 H   0  0  0  0  0  0  0  0  0  0  0  0
    0.5969    1.9006   10.0456 H   0  0  0  0  0  0  0  0  0  0  0  0
    2.0559   -0.1005   -3.0184 H   0  0  0  0  0  0  0  0  0  0  0  0
    1.2112   -2.1998   -4.2331 H   0  0  0  0  0  0  0  0  0  0  0  0
   -0.5110   -2.5202   -4.1785 H   0  0  0  0  0  0  0  0  0  0  0  0
    1.2134   -2.3584   -0.4754 H   0  0  0  0  0  0  0  0  0  0  0  0
   -3.9236    1.1080   -8.2900 H   0  0  0  0  0  0  0  0  0  0  0  0
   -1.5736    1.2180   -9.0542 H   0  0  0  0  0  0  0  0  0  0  0  0
   -2.7872   -1.0514   -4.7658 H   0  0  0  0  0  0  0  0  0  0  0  0
   -4.5162   -0.0113   -6.1759 H   0  0  0  0  0  0  0  0  0  0  0  0
    2.0991   -0.8078   -6.3833 H   0  0  0  0  0  0  0  0  0  0  0  0
    0.8600    1.6693   -2.3129 S   0  0  2  0  0  0  0  0  0  0  0  0
    1.0143    0.4076   -8.2707 H   0  0  0  0  0  0  0  0  0  0  0  0
  1 13  1  0
  1 17  1  0
  1 18  1  0
  2  3  2  0
  2 13  1  0
  2 36  1  0
  3  4  1  0
  3 37  1  0
  4  5  2  0
  4 64  1  0
  5 14  1  0
  5 38  1  0
  6 30  1  0
  6 34  1  0
  6 65  1  0
  7 23  1  0
  7 24  1  0
  7 25  1  0
  7 39  1  6
  8 10  2  0
  8 22  1  0
  8 40  1  0
  9 15  1  0
  9 16  1  0
  9 20  1  0
  9 41  1  1
 10 19  1  0
 10 42  1  0
 11 64  2  0
 12 64  2  0
 13 14  2  0
 14 43  1  0
 64 23  1  6
 15 18  1  0
 15 44  1  0
 15 45  1  0
 16 17  1  0
 16 46  1  0
 16 47  1  0
 17 48  1  0
 17 49  1  0
 18 50  1  0
 18 51  1  0
 19 20  2  0
 19 52  1  0
 20 21  1  0
 21 22  2  0
 21 53  1  0
 22 54  1  0
 23 55  1  0
 24 35  1  0
 24 56  1  0
 24 57  1  0
 25 26  2  0
 25 27  1  0
 27 58  1  0
 28 29  1  0
 28 33  2  0
 28 59  1  0
 29 30  2  0
 29 60  1  0
 30 31  1  0
 31 32  2  0
 31 35  1  0
 32 33  1  0
 32 61  1  0
 33 62  1  0
 34 35  2  0
 34 63  1  0
M  END
