
     RDKit          3D

 53 56  0  0  0  0  0  0  0  0999 V2000
    4.9775   -1.8970   -2.1562 C   0  0  0  0  0  0  0  0  0  0  0  0
    4.4303   -2.4086   -0.8573 C   0  0  0  0  0  0  0  0  0  0  0  0
    4.2074   -3.7700   -0.6643 C   0  0  0  0  0  0  0  0  0  0  0  0
    3.6659   -4.2576    0.5168 C   0  0  0  0  0  0  0  0  0  0  0  0
    3.3347   -3.3840    1.5426 C   0  0  0  0  0  0  0  0  0  0  0  0
    3.5629   -2.0263    1.3821 C   0  0  0  0  0  0  0  0  0  0  0  0
    4.1089   -1.5514    0.1973 C   0  0  0  0  0  0  0  0  0  0  0  0
    4.3229   -0.1594    0.0613 N   0  0  0  0  0  0  0  0  0  0  0  0
    3.3965    0.8183    0.1119 C   0  0  0  0  0  0  0  0  0  0  0  0
    2.0777    0.6434    0.2696 N   0  0  0  0  0  0  0  0  0  0  0  0
    5.5715    0.3428   -0.1064 N   0  0  0  0  0  0  0  0  0  0  0  0
    5.4392    1.6423   -0.1679 C   0  0  0  0  0  0  0  0  0  0  0  0
    4.0859    2.0168   -0.0354 C   0  0  0  0  0  0  0  0  0  0  0  0
    3.3472    3.2381   -0.0145 C   0  0  0  0  0  0  0  0  0  0  0  0
    3.7691    4.3757   -0.1227 O   0  0  0  0  0  0  0  0  0  0  0  0
    1.9829    2.9972    0.1592 N   0  0  0  0  0  0  0  0  0  0  0  0
    1.4011    1.7640    0.2895 C   0  0  0  0  0  0  0  0  0  0  0  0
    0.0722    1.7449    0.4291 N   0  0  0  0  0  0  0  0  0  0  0  0
   -0.6652    0.5299    0.6788 C   0  0  1  0  0  0  0  0  0  0  0  0
   -0.5554    0.0724    2.1353 C   0  0  0  0  0  0  0  0  0  0  0  0
   -2.1251    0.8044    0.3325 C   0  0  0  0  0  0  0  0  0  0  0  0
   -2.5949    1.9268    0.3962 O   0  0  0  0  0  0  0  0  0  0  0  0
   -2.8221   -0.3016    0.0066 N   0  0  0  0  0  0  0  0  0  0  0  0
   -4.2114   -0.4052   -0.1941 C   0  0  0  0  0  0  0  0  0  0  0  0
   -4.9833    0.6101   -0.7431 C   0  0  0  0  0  0  0  0  0  0  0  0
   -6.3511    0.4376   -0.9258 C   0  0  0  0  0  0  0  0  0  0  0  0
   -6.9667   -0.7593   -0.5738 C   0  0  0  0  0  0  0  0  0  0  0  0
   -8.2816   -1.0152   -0.7155 O   0  0  0  0  0  0  0  0  0  0  0  0
   -9.1089   -0.0052   -1.2566 C   0  0  0  0  0  0  0  0  0  0  0  0
   -6.1869   -1.7860   -0.0384 C   0  0  0  0  0  0  0  0  0  0  0  0
   -4.8319   -1.6061    0.1520 C   0  0  0  0  0  0  0  0  0  0  0  0
    6.0073   -1.5549   -2.0529 H   0  0  0  0  0  0  0  0  0  0  0  0
    4.9576   -2.6783   -2.9137 H   0  0  0  0  0  0  0  0  0  0  0  0
    4.3964   -1.0530   -2.5295 H   0  0  0  0  0  0  0  0  0  0  0  0
    4.4479   -4.4588   -1.4651 H   0  0  0  0  0  0  0  0  0  0  0  0
    3.4971   -5.3203    0.6322 H   0  0  0  0  0  0  0  0  0  0  0  0
    2.9086   -3.7546    2.4650 H   0  0  0  0  0  0  0  0  0  0  0  0
    3.3242   -1.3333    2.1779 H   0  0  0  0  0  0  0  0  0  0  0  0
    6.3042    2.2746   -0.2994 H   0  0  0  0  0  0  0  0  0  0  0  0
    1.3883    3.8158    0.1927 H   0  0  0  0  0  0  0  0  0  0  0  0
   -0.4335    2.6128    0.5303 H   0  0  0  0  0  0  0  0  0  0  0  0
   -0.2737   -0.2551    0.0278 H   0  0  0  0  0  0  0  0  0  0  0  0
   -1.1163   -0.8465    2.3058 H   0  0  0  0  0  0  0  0  0  0  0  0
    0.4874   -0.1222    2.3802 H   0  0  0  0  0  0  0  0  0  0  0  0
   -0.9367    0.8381    2.8107 H   0  0  0  0  0  0  0  0  0  0  0  0
   -2.3160   -1.1745    0.0068 H   0  0  0  0  0  0  0  0  0  0  0  0
   -4.5384    1.5447   -1.0473 H   0  0  0  0  0  0  0  0  0  0  0  0
   -6.9119    1.2557   -1.3566 H   0  0  0  0  0  0  0  0  0  0  0  0
   -9.1097    0.8970   -0.6390 H   0  0  0  0  0  0  0  0  0  0  0  0
   -8.8128    0.2654   -2.2735 H   0  0  0  0  0  0  0  0  0  0  0  0
  -10.1168   -0.4118   -1.2832 H   0  0  0  0  0  0  0  0  0  0  0  0
   -6.6505   -2.7246    0.2377 H   0  0  0  0  0  0  0  0  0  0  0  0
   -4.2476   -2.4128    0.5787 H   0  0  0  0  0  0  0  0  0  0  0  0
 29 28  1  0
 28 27  1  0
 27 30  2  0
 27 26  1  0
 30 31  1  0
 26 25  2  0
 31 24  2  0
 25 24  1  0
 24 23  1  0
  4  3  1  0
  4  5  2  0
  3  2  2  0
 22 21  2  0
 23 21  1  0
 21 19  1  0
  5  6  1  0
 20 19  1  0
  2  1  1  0
  2  7  1  0
 19 18  1  0
  6  7  2  0
  7  8  1  0
 18 17  1  0
 10 17  2  0
 10  9  1  0
 17 16  1  0
  8  9  1  0
  8 11  1  0
  9 13  2  0
 11 12  2  0
 16 14  1  0
 13 14  1  0
 13 12  1  0
 14 15  2  0
  1 32  1  0
  1 33  1  0
  1 34  1  0
  3 35  1  0
  4 36  1  0
  5 37  1  0
  6 38  1  0
 12 39  1  0
 16 40  1  0
 18 41  1  0
 19 42  1  6
 20 43  1  0
 20 44  1  0
 20 45  1  0
 23 46  1  0
 25 47  1  0
 26 48  1  0
 29 49  1  0
 29 50  1  0
 29 51  1  0
 30 52  1  0
 31 53  1  0
M  END
