
     RDKit          3D

 41 43  0  0  0  0  0  0  0  0999 V2000
    1.6240   -0.0306    1.0282 C   0  0  0  0  0  0  0  0  0  0  0  0
    2.3592   -1.1580    0.7178 C   0  0  0  0  0  0  0  0  0  0  0  0
    3.5285   -1.0008   -0.0084 C   0  0  0  0  0  0  0  0  0  0  0  0
    3.9648    0.2522   -0.4193 C   0  0  0  0  0  0  0  0  0  0  0  0
    3.2082    1.3640   -0.0986 C   0  0  0  0  0  0  0  0  0  0  0  0
    2.0297    1.2360    0.6282 C   0  0  0  0  0  0  0  0  0  0  0  0
    1.0540    2.6879    0.9379 S   0  0  1  0  0  0  0  0  0  0  0  0
    0.3807    2.5394    2.2093 O   0  0  0  0  0  0  0  0  0  0  0  0
    1.8879    3.8446    0.6795 O   0  0  0  0  0  0  0  0  0  0  0  0
   -0.1002    2.6963   -0.2596 N   0  0  0  0  0  0  0  0  0  0  0  0
   -1.0218    1.6224   -0.3087 C   0  0  0  0  0  0  0  0  0  0  0  0
   -0.8723    0.5338   -1.1815 C   0  0  0  0  0  0  0  0  0  0  0  0
   -1.8152   -0.4900   -1.1662 C   0  0  0  0  0  0  0  0  0  0  0  0
   -2.8839   -0.4469   -0.2853 C   0  0  0  0  0  0  0  0  0  0  0  0
   -3.0238    0.6212    0.5926 C   0  0  0  0  0  0  0  0  0  0  0  0
   -2.0972    1.6464    0.5687 C   0  0  0  0  0  0  0  0  0  0  0  0
    0.2478    0.4811   -2.1584 C   0  0  0  0  0  0  0  0  0  0  0  0
    0.5305   -0.7495   -2.5446 O   0  0  0  0  0  0  0  0  0  0  0  0
    0.8405    1.4548   -2.5636 O   0  0  0  0  0  0  0  0  0  0  0  0
   -3.7425   -1.5000   -0.3046 O   0  0  0  0  0  0  0  0  0  0  0  0
   -5.0737   -1.2893   -0.0432 C   0  0  0  0  0  0  0  0  0  0  0  0
   -5.6910   -2.1233    0.8760 C   0  0  0  0  0  0  0  0  0  0  0  0
   -7.0503   -1.9766    1.1200 C   0  0  0  0  0  0  0  0  0  0  0  0
   -7.7816   -0.9981    0.4607 C   0  0  0  0  0  0  0  0  0  0  0  0
   -7.1488   -0.1692   -0.4573 C   0  0  0  0  0  0  0  0  0  0  0  0
   -5.7938   -0.3113   -0.7183 C   0  0  0  0  0  0  0  0  0  0  0  0
    0.4985   -0.1927    1.7148 F   0  0  0  0  0  0  0  0  0  0  0  0
    4.5410   -2.5200   -0.4432 Br  0  0  0  0  0  0  0  0  0  0  0  0
    2.0068   -2.1281    1.0421 H   0  0  0  0  0  0  0  0  0  0  0  0
    4.8789    0.3725   -0.9830 H   0  0  0  0  0  0  0  0  0  0  0  0
    3.5450    2.3391   -0.4214 H   0  0  0  0  0  0  0  0  0  0  0  0
    0.3190    2.9184   -1.1591 H   0  0  0  0  0  0  0  0  0  0  0  0
   -1.7342   -1.3260   -1.8478 H   0  0  0  0  0  0  0  0  0  0  0  0
   -3.8503    0.6664    1.2894 H   0  0  0  0  0  0  0  0  0  0  0  0
   -2.2154    2.4855    1.2392 H   0  0  0  0  0  0  0  0  0  0  0  0
    1.2310   -0.7359   -3.2147 H   0  0  0  0  0  0  0  0  0  0  0  0
   -5.1145   -2.8822    1.3892 H   0  0  0  0  0  0  0  0  0  0  0  0
   -7.5357   -2.6274    1.8355 H   0  0  0  0  0  0  0  0  0  0  0  0
   -8.8389   -0.8830    0.6584 H   0  0  0  0  0  0  0  0  0  0  0  0
   -7.7130    0.5914   -0.9807 H   0  0  0  0  0  0  0  0  0  0  0  0
   -5.3094    0.3308   -1.4440 H   0  0  0  0  0  0  0  0  0  0  0  0
 28  3  1  0
 24 23  1  0
 24 25  2  0
 23 22  2  0
 25 26  1  0
 22 21  1  0
  3  4  2  0
  3  2  1  0
 26 21  2  0
 21 20  1  0
  4  5  1  0
  2  1  2  0
 20 14  1  0
 19 17  2  0
  5  6  2  0
 13 14  1  0
 13 12  2  0
  1 27  1  0
  1  6  1  0
 14 15  2  0
 17 12  1  0
 17 18  1  0
  6  7  1  0
 12 11  1  0
 15 16  1  0
 11 16  2  0
 11 10  1  0
  7 10  1  6
  7  9  2  0
  7  8  2  0
  2 29  1  0
  4 30  1  0
  5 31  1  0
 10 32  1  0
 13 33  1  0
 15 34  1  0
 16 35  1  0
 18 36  1  0
 22 37  1  0
 23 38  1  0
 24 39  1  0
 25 40  1  0
 26 41  1  0
M  END
