
     RDKit          3D

 26 27  0  0  0  0  0  0  0  0999 V2000
    2.7531    0.0763   -1.8386 C   0  0  0  0  0  0  0  0  0  0  0  0
    2.1278    0.4520   -0.4964 C   0  0  2  0  0  0  0  0  0  0  0  0
    2.8830   -0.1179    0.6937 C   0  0  0  0  0  0  0  0  0  0  0  0
    4.1488    0.2583    0.6733 O   0  0  0  0  0  0  0  0  0  0  0  0
    2.3902   -0.8121    1.5430 O   0  0  0  0  0  0  0  0  0  0  0  0
    0.7262    0.0668   -0.4032 N   0  0  0  0  0  0  0  0  0  0  0  0
    0.3849   -1.2412   -0.5977 C   0  0  0  0  0  0  0  0  0  0  0  0
   -0.7932   -1.7295   -0.5130 N   0  0  0  0  0  0  0  0  0  0  0  0
   -1.8134   -0.8645   -0.1892 C   0  0  0  0  0  0  0  0  0  0  0  0
   -3.1192   -1.3607   -0.0904 C   0  0  0  0  0  0  0  0  0  0  0  0
   -4.1558   -0.5121    0.2321 C   0  0  0  0  0  0  0  0  0  0  0  0
   -3.9187    0.8477    0.4630 C   0  0  0  0  0  0  0  0  0  0  0  0
   -2.6388    1.3486    0.3707 C   0  0  0  0  0  0  0  0  0  0  0  0
   -1.5783    0.4970    0.0448 C   0  0  0  0  0  0  0  0  0  0  0  0
   -0.2193    1.0174   -0.0431 C   0  0  0  0  0  0  0  0  0  0  0  0
    0.0889    2.1751    0.1709 O   0  0  0  0  0  0  0  0  0  0  0  0
    2.8572   -0.9995   -1.9729 H   0  0  0  0  0  0  0  0  0  0  0  0
    2.1389    0.4698   -2.6467 H   0  0  0  0  0  0  0  0  0  0  0  0
    3.7417    0.5208   -1.9266 H   0  0  0  0  0  0  0  0  0  0  0  0
    2.1597    1.5388   -0.4052 H   0  0  0  0  0  0  0  0  0  0  0  0
    4.6241   -0.1130    1.4322 H   0  0  0  0  0  0  0  0  0  0  0  0
    1.2008   -1.9040   -0.8584 H   0  0  0  0  0  0  0  0  0  0  0  0
   -3.2931   -2.4133   -0.2720 H   0  0  0  0  0  0  0  0  0  0  0  0
   -5.1632   -0.9004    0.3070 H   0  0  0  0  0  0  0  0  0  0  0  0
   -4.7414    1.5040    0.7129 H   0  0  0  0  0  0  0  0  0  0  0  0
   -2.4492    2.3990    0.5462 H   0  0  0  0  0  0  0  0  0  0  0  0
 11 12  2  0
 11 10  1  0
 12 13  1  0
 10  9  2  0
 13 14  2  0
  9 14  1  0
  9  8  1  0
 14 15  1  0
  8  7  2  0
  5  3  2  0
 15 16  2  0
 15  6  1  0
  7  6  1  0
  6  2  1  0
  3  2  1  0
  3  4  1  0
  2  1  1  0
  1 17  1  0
  1 18  1  0
  1 19  1  0
  2 20  1  1
  4 21  1  0
  7 22  1  0
 10 23  1  0
 11 24  1  0
 12 25  1  0
 13 26  1  0
M  END
