
     RDKit          3D

 45 48  0  0  0  0  0  0  0  0999 V2000
    2.1143    0.3146    0.0309 C   0  0  0  0  0  0  0  0  0  0  0  0
   -0.0628    0.5843    0.0036 C   0  0  0  0  0  0  0  0  0  0  0  0
   -1.5904    2.5896   -0.0698 C   0  0  2  0  0  0  0  0  0  0  0  0
   -2.1897    0.0861   -0.0206 C   0  0  0  0  0  0  0  0  0  0  0  0
   -3.5212    0.3136   -0.0594 N   0  0  0  0  0  0  0  0  0  0  0  0
    4.4353    0.1249    0.0137 C   0  0  0  0  0  0  0  0  0  0  0  0
    4.9821   -0.3184   -1.1797 C   0  0  0  0  0  0  0  0  0  0  0  0
    6.2407   -0.9652    1.1944 C   0  0  0  0  0  0  0  0  0  0  0  0
   -1.0465    3.2921    1.1657 C   0  0  0  0  0  0  0  0  0  0  0  0
   -5.8486   -0.1449   -0.2423 C   0  0  0  0  0  0  0  0  0  0  0  0
   -6.9555   -0.9595   -0.2504 C   0  0  0  0  0  0  0  0  0  0  0  0
   -6.7848   -2.3262   -0.0665 C   0  0  0  0  0  0  0  0  0  0  0  0
   -5.5088   -2.8315    0.1223 C   0  0  0  0  0  0  0  0  0  0  0  0
   -4.3980   -1.9972    0.1305 C   0  0  0  0  0  0  0  0  0  0  0  0
   -4.5498   -0.6236   -0.0558 C   0  0  0  0  0  0  0  0  0  0  0  0
   -1.6127   -1.0834    0.0197 N   0  0  0  0  0  0  0  0  0  0  0  0
   -0.2716   -0.8041    0.0347 C   0  0  0  0  0  0  0  0  0  0  0  0
    0.8644   -1.5797    0.0673 C   0  0  0  0  0  0  0  0  0  0  0  0
   -1.3011    1.1511   -0.0250 N   0  0  0  0  0  0  0  0  0  0  0  0
   -1.0942    3.1981   -1.3730 C   0  0  0  0  0  0  0  0  0  0  0  0
    1.1127    1.1760   -0.0014 N   0  0  0  0  0  0  0  0  0  0  0  0
    2.0680   -0.9974    0.0657 N   0  0  0  0  0  0  0  0  0  0  0  0
    3.3280    0.9180    0.0278 O   0  0  0  0  0  0  0  0  0  0  0  0
    4.3448   -0.0040   -2.3100 F   0  0  0  0  0  0  0  0  0  0  0  0
    6.1418   -1.0645   -1.2186 C   0  0  0  0  0  0  0  0  0  0  0  0
    6.7661   -1.3830   -0.0202 C   0  0  0  0  0  0  0  0  0  0  0  0
    5.0776   -0.2219    1.1905 C   0  0  0  0  0  0  0  0  0  0  0  0
    4.5361    0.1851    2.3409 F   0  0  0  0  0  0  0  0  0  0  0  0
   -2.6754    2.6918   -0.0469 H   0  0  0  0  0  0  0  0  0  0  0  0
   -3.8177    1.2726   -0.1396 H   0  0  0  0  0  0  0  0  0  0  0  0
    6.7224   -1.2129    2.1305 H   0  0  0  0  0  0  0  0  0  0  0  0
   -1.3531    4.3373    1.1471 H   0  0  0  0  0  0  0  0  0  0  0  0
   -1.4371    2.8410    2.0773 H   0  0  0  0  0  0  0  0  0  0  0  0
    0.0412    3.2614    1.1991 H   0  0  0  0  0  0  0  0  0  0  0  0
   -7.9361   -0.5280   -0.4021 H   0  0  0  0  0  0  0  0  0  0  0  0
   -7.6440   -2.9823   -0.0715 H   0  0  0  0  0  0  0  0  0  0  0  0
   -5.3629   -3.8937    0.2658 H   0  0  0  0  0  0  0  0  0  0  0  0
   -3.4134   -2.4101    0.2783 H   0  0  0  0  0  0  0  0  0  0  0  0
    0.8327   -2.6626    0.0930 H   0  0  0  0  0  0  0  0  0  0  0  0
   -0.0083    3.1547   -1.4450 H   0  0  0  0  0  0  0  0  0  0  0  0
   -1.5218    2.6847   -2.2337 H   0  0  0  0  0  0  0  0  0  0  0  0
   -1.3927    4.2448   -1.4212 H   0  0  0  0  0  0  0  0  0  0  0  0
    6.5461   -1.3896   -2.1673 H   0  0  0  0  0  0  0  0  0  0  0  0
    7.6760   -1.9663   -0.0332 H   0  0  0  0  0  0  0  0  0  0  0  0
   -6.0055    1.1824   -0.4184 F   0  0  0  0  0  0  0  0  0  0  0  0
  1 21  2  0
  1 22  1  0
  1 23  1  0
  2 17  2  0
  2 19  1  0
  2 21  1  0
  3  9  1  0
  3 19  1  0
  3 20  1  0
  3 29  1  6
  4  5  1  0
  4 16  2  0
  4 19  1  0
  5 15  1  0
  5 30  1  0
  6  7  2  0
  6 23  1  0
  6 27  1  0
  7 24  1  0
  7 25  1  0
  8 26  1  0
  8 27  2  0
  8 31  1  0
  9 32  1  0
  9 33  1  0
  9 34  1  0
 45 10  1  0
 10 11  2  0
 10 15  1  0
 11 12  1  0
 11 35  1  0
 12 13  2  0
 12 36  1  0
 13 14  1  0
 13 37  1  0
 14 15  2  0
 14 38  1  0
 16 17  1  0
 17 18  1  0
 18 22  2  0
 18 39  1  0
 20 40  1  0
 20 41  1  0
 20 42  1  0
 25 26  2  0
 25 43  1  0
 26 44  1  0
 27 28  1  0
M  END
