
     RDKit          3D

 38 40  0  0  0  0  0  0  0  0999 V2000
   -3.7372   -2.4423    0.3551 C   0  0  0  0  0  0  0  0  0  0  0  0
    1.9288    0.3879    0.5449 C   0  0  1  0  0  0  0  0  0  0  0  0
    4.3269    0.5554    1.2233 C   0  0  0  0  0  0  0  0  0  0  0  0
    0.7247    1.1550    0.2943 N   0  0  0  0  0  0  0  0  0  0  0  0
   -0.4960    0.5838    0.1825 C   0  0  0  0  0  0  0  0  0  0  0  0
   -2.8575    0.9714   -0.3295 C   0  0  0  0  0  0  0  0  0  0  0  0
   -2.9825   -0.4011   -0.0102 C   0  0  0  0  0  0  0  0  0  0  0  0
   -1.8952   -1.1741    0.3690 C   0  0  0  0  0  0  0  0  0  0  0  0
   -2.3816   -2.4843    0.6024 C   0  0  0  0  0  0  0  0  0  0  0  0
   -4.0964   -1.1936   -0.0135 N   0  0  0  0  0  0  0  0  0  0  0  0
   -1.2612    2.8207   -0.4842 C   0  0  0  0  0  0  0  0  0  0  0  0
    2.4030   -0.3331   -0.7169 C   0  0  0  0  0  0  0  0  0  0  0  0
    4.6968   -0.1695   -0.0607 C   0  0  0  0  0  0  0  0  0  0  0  0
    3.0192    1.3192    1.0593 C   0  0  0  0  0  0  0  0  0  0  0  0
   -1.5335    1.4190   -0.1998 N   0  0  0  0  0  0  0  0  0  0  0  0
   -0.6348   -0.6796    0.4612 N   0  0  0  0  0  0  0  0  0  0  0  0
    3.6297   -1.0636   -0.4710 N   0  0  0  0  0  0  0  0  0  0  0  0
   -3.7620    1.7201   -0.6787 O   0  0  0  0  0  0  0  0  0  0  0  0
   -4.4713   -3.2286    0.4208 H   0  0  0  0  0  0  0  0  0  0  0  0
    1.7073   -0.3597    1.3088 H   0  0  0  0  0  0  0  0  0  0  0  0
    4.2304   -0.1730    2.0331 H   0  0  0  0  0  0  0  0  0  0  0  0
    5.1298    1.2407    1.5012 H   0  0  0  0  0  0  0  0  0  0  0  0
    0.8697    2.0750   -0.0861 H   0  0  0  0  0  0  0  0  0  0  0  0
   -1.8164   -3.3486    0.9121 H   0  0  0  0  0  0  0  0  0  0  0  0
   -5.0305   -0.8971   -0.2425 H   0  0  0  0  0  0  0  0  0  0  0  0
   -0.5870    2.9240   -1.3350 H   0  0  0  0  0  0  0  0  0  0  0  0
   -2.1922    3.3157   -0.7325 H   0  0  0  0  0  0  0  0  0  0  0  0
   -0.8300    3.3169    0.3848 H   0  0  0  0  0  0  0  0  0  0  0  0
    1.6303   -1.0321   -1.0438 H   0  0  0  0  0  0  0  0  0  0  0  0
    2.5296    0.4158   -1.5211 H   0  0  0  0  0  0  0  0  0  0  0  0
    4.9222    0.5735   -0.8478 H   0  0  0  0  0  0  0  0  0  0  0  0
    5.6066   -0.7557    0.0899 H   0  0  0  0  0  0  0  0  0  0  0  0
    3.1637    2.1337    0.3398 H   0  0  0  0  0  0  0  0  0  0  0  0
    2.7124    1.7747    2.0034 H   0  0  0  0  0  0  0  0  0  0  0  0
    4.9151   -2.4209   -1.4022 H   0  0  0  0  0  0  0  0  0  0  0  0
    3.2173   -2.5756   -1.8520 H   0  0  0  0  0  0  0  0  0  0  0  0
    4.1913   -1.2585   -2.5233 H   0  0  0  0  0  0  0  0  0  0  0  0
    4.0057   -1.8582   -1.6183 C   0  0  0  0  0  0  0  0  0  0  0  0
 38 17  1  0
 13 17  1  0
 13  3  1  0
 17 12  1  0
 12  2  1  0
  3 14  1  0
 14  2  1  0
  2  4  1  0
  4  5  1  0
  5 16  2  0
  5 15  1  0
 11 15  1  0
 16  8  1  0
 15  6  1  0
  8  7  2  0
  8  9  1  0
  6  7  1  0
  6 18  2  0
  7 10  1  0
  9  1  2  0
 10  1  1  0
  1 19  1  0
  2 20  1  1
  3 21  1  0
  3 22  1  0
  4 23  1  0
  9 24  1  0
 10 25  1  0
 11 26  1  0
 11 27  1  0
 11 28  1  0
 12 29  1  0
 12 30  1  0
 13 31  1  0
 13 32  1  0
 14 33  1  0
 14 34  1  0
 38 35  1  0
 38 36  1  0
 38 37  1  0
M  END
