
     RDKit          3D

 22 21  0  0  0  0  0  0  0  0999 V2000
   -2.5498    0.1471    0.3138 C   0  0  0  0  0  0  0  0  0  0  0  0
   -3.4968    0.5973   -0.4970 O   0  0  0  0  0  0  0  0  0  0  0  0
   -2.6942   -0.7942    1.0508 O   0  0  0  0  0  0  0  0  0  0  0  0
   -1.2804    0.9495    0.2248 C   0  0  0  0  0  0  0  0  0  0  0  0
   -0.0857    0.1002   -0.1727 C   0  0  0  0  0  0  0  0  0  0  0  0
    1.2514    0.7365    0.0878 C   0  0  0  0  0  0  0  0  0  0  0  0
    2.4811   -0.0958   -0.2611 C   0  0  1  0  0  0  0  0  0  0  0  0
    3.7161    0.8013   -0.2651 C   0  0  0  0  0  0  0  0  0  0  0  0
    2.6683   -1.2603    0.7071 C   0  0  0  0  0  0  0  0  0  0  0  0
   -0.2300   -0.9704   -0.7116 O   0  0  0  0  0  0  0  0  0  0  0  0
   -4.3008    0.0650   -0.3958 H   0  0  0  0  0  0  0  0  0  0  0  0
   -1.3630    1.7618   -0.5013 H   0  0  0  0  0  0  0  0  0  0  0  0
   -1.0948    1.4218    1.1929 H   0  0  0  0  0  0  0  0  0  0  0  0
    1.2536    1.6777   -0.4767 H   0  0  0  0  0  0  0  0  0  0  0  0
    1.2842    1.0452    1.1392 H   0  0  0  0  0  0  0  0  0  0  0  0
    2.3528   -0.4993   -1.2703 H   0  0  0  0  0  0  0  0  0  0  0  0
    3.8812    1.2466    0.7190 H   0  0  0  0  0  0  0  0  0  0  0  0
    4.6116    0.2352   -0.5251 H   0  0  0  0  0  0  0  0  0  0  0  0
    3.6155    1.6151   -0.9852 H   0  0  0  0  0  0  0  0  0  0  0  0
    2.7974   -0.8958    1.7292 H   0  0  0  0  0  0  0  0  0  0  0  0
    1.8187   -1.9416    0.6994 H   0  0  0  0  0  0  0  0  0  0  0  0
    3.5565   -1.8395    0.4498 H   0  0  0  0  0  0  0  0  0  0  0  0
  2  1  1  0
  1  3  2  0
  1  4  1  0
  4  5  1  0
  5 10  2  0
  5  6  1  0
  6  7  1  0
  7  8  1  0
  7  9  1  0
  2 11  1  0
  4 12  1  0
  4 13  1  0
  6 14  1  0
  6 15  1  0
  7 16  1  6
  8 17  1  0
  8 18  1  0
  8 19  1  0
  9 20  1  0
  9 21  1  0
  9 22  1  0
M  END
