
     RDKit          3D

 25 25  0  0  0  0  0  0  0  0999 V2000
   -1.3988    0.6373    1.6632 I   0  0  0  0  0  0  0  0  0  0  0  0
    2.5078   -0.1625    0.1340 N   0  0  0  0  0  0  0  0  0  0  0  0
    0.8789    1.1374   -0.7563 O   0  0  0  0  0  0  0  0  0  0  0  0
   -0.8612   -1.0541    0.5272 C   0  0  0  0  0  0  0  0  0  0  0  0
    0.3357   -1.1018   -0.1821 C   0  0  0  0  0  0  0  0  0  0  0  0
    0.6522   -2.2695   -0.8738 C   0  0  0  0  0  0  0  0  0  0  0  0
   -0.2059   -3.3584   -0.8686 C   0  0  0  0  0  0  0  0  0  0  0  0
   -1.3914   -3.2944   -0.1534 C   0  0  0  0  0  0  0  0  0  0  0  0
   -1.7190   -2.1447    0.5531 C   0  0  0  0  0  0  0  0  0  0  0  0
    1.2622    0.0739   -0.2942 C   0  0  0  0  0  0  0  0  0  0  0  0
    3.5986    0.7962    0.0342 C   0  0  1  0  0  0  0  0  0  0  0  0
    4.5148    0.6434    1.2389 C   0  0  0  0  0  0  0  0  0  0  0  0
    4.3542    0.6274   -1.2790 C   0  0  0  0  0  0  0  0  0  0  0  0
    2.7245   -1.0788    0.4961 H   0  0  0  0  0  0  0  0  0  0  0  0
    1.5764   -2.3179   -1.4366 H   0  0  0  0  0  0  0  0  0  0  0  0
    0.0529   -4.2513   -1.4216 H   0  0  0  0  0  0  0  0  0  0  0  0
   -2.0683   -4.1380   -0.1359 H   0  0  0  0  0  0  0  0  0  0  0  0
   -2.6402   -2.1103    1.1185 H   0  0  0  0  0  0  0  0  0  0  0  0
    3.1509    1.7910    0.0587 H   0  0  0  0  0  0  0  0  0  0  0  0
    4.9822   -0.3438    1.2574 H   0  0  0  0  0  0  0  0  0  0  0  0
    5.3125    1.3845    1.2004 H   0  0  0  0  0  0  0  0  0  0  0  0
    3.9697    0.7807    2.1728 H   0  0  0  0  0  0  0  0  0  0  0  0
    4.8195   -0.3585   -1.3353 H   0  0  0  0  0  0  0  0  0  0  0  0
    3.6880    0.7402   -2.1346 H   0  0  0  0  0  0  0  0  0  0  0  0
    5.1423    1.3764   -1.3652 H   0  0  0  0  0  0  0  0  0  0  0  0
  1  4  1  0
  2 10  1  0
  2 11  1  0
  3 10  2  0
  4  5  2  0
  4  9  1  0
  5  6  1  0
  5 10  1  0
  6  7  2  0
  7  8  1  0
  8  9  2  0
 11 12  1  0
 11 13  1  0
  2 14  1  0
  6 15  1  0
  7 16  1  0
  8 17  1  0
  9 18  1  0
 11 19  1  6
 12 20  1  0
 12 21  1  0
 12 22  1  0
 13 23  1  0
 13 24  1  0
 13 25  1  0
M  END
