
     RDKit          3D

 12 11  0  0  0  0  0  0  0  0999 V2000
    2.7899   -0.8071   -0.0198 O   0  0  0  0  0  0  0  0  0  0  0  0
    1.8906    0.1637   -0.0119 C   0  0  0  0  0  0  0  0  0  0  0  0
    2.1608    1.3389   -0.0060 O   0  0  0  0  0  0  0  0  0  0  0  0
    0.5121   -0.3844   -0.0098 C   0  0  0  0  0  0  0  0  0  0  0  0
   -0.5402    0.4267   -0.0018 C   0  0  0  0  0  0  0  0  0  0  0  0
   -1.9185   -0.1216    0.0003 C   0  0  0  0  0  0  0  0  0  0  0  0
   -2.1887   -1.2964   -0.0153 O   0  0  0  0  0  0  0  0  0  0  0  0
   -2.8181    0.8494    0.0210 O   0  0  0  0  0  0  0  0  0  0  0  0
    3.6865   -0.4383   -0.0245 H   0  0  0  0  0  0  0  0  0  0  0  0
    0.3932   -1.4612   -0.0155 H   0  0  0  0  0  0  0  0  0  0  0  0
   -0.4209    1.5033    0.0036 H   0  0  0  0  0  0  0  0  0  0  0  0
   -3.7142    0.4794    0.0241 H   0  0  0  0  0  0  0  0  0  0  0  0
  1  2  1  0
  1  9  1  0
  2  3  2  0
  2  4  1  0
  4  5  2  0
  4 10  1  0
  5  6  1  0
  5 11  1  0
  6  7  2  0
  6  8  1  0
  8 12  1  0
M  END
