
     RDKit          3D

 48 50  0  0  0  0  0  0  0  0999 V2000
   -1.4144   -0.4048   -4.8417 C   0  0  0  0  0  0  0  0  0  0  0  0
   -0.7035   -0.2153   -3.6556 C   0  0  0  0  0  0  0  0  0  0  0  0
    0.6468    0.1218   -3.7315 C   0  0  0  0  0  0  0  0  0  0  0  0
    1.2522    0.2692   -4.9681 C   0  0  0  0  0  0  0  0  0  0  0  0
   -1.0605    0.0357   -1.2203 C   0  0  0  0  0  0  0  0  0  0  0  0
   -1.8546   -0.1088    1.1057 C   0  0  0  0  0  0  0  0  0  0  0  0
   -2.2955   -1.0836    2.0000 C   0  0  0  0  0  0  0  0  0  0  0  0
   -2.2890   -0.8514    3.3650 C   0  0  0  0  0  0  0  0  0  0  0  0
   -1.8355    0.3654    3.8433 C   0  0  0  0  0  0  0  0  0  0  0  0
   -1.3982    1.3468    2.9700 C   0  0  0  0  0  0  0  0  0  0  0  0
   -1.4134    1.1178    1.6028 C   0  0  0  0  0  0  0  0  0  0  0  0
   -1.8684    0.6133    5.1997 O   0  0  0  0  0  0  0  0  0  0  0  0
   -0.8449    0.6924    7.2949 C   0  0  0  0  0  0  0  0  0  0  0  0
    0.2835    0.5116    8.0723 C   0  0  0  0  0  0  0  0  0  0  0  0
    1.5255   -0.1392    6.2877 C   0  0  0  0  0  0  0  0  0  0  0  0
    0.4615    0.0019    5.4103 C   0  0  0  0  0  0  0  0  0  0  0  0
    3.8218   -0.7004    6.6524 N   0  0  0  0  0  0  0  0  0  0  0  0
    5.1585   -1.1243    6.3172 C   0  0  0  0  0  0  0  0  0  0  0  0
    0.5405    0.0785   -6.1384 C   0  0  0  0  0  0  0  0  0  0  0  0
   -0.8076   -0.2674   -6.0787 C   0  0  0  0  0  0  0  0  0  0  0  0
   -1.6060   -0.4957   -7.3295 C   0  0  1  0  0  0  0  0  0  0  0  0
   -1.6105    0.5813   -8.1224 F   0  0  0  0  0  0  0  0  0  0  0  0
   -1.1158   -1.5132   -8.0474 F   0  0  0  0  0  0  0  0  0  0  0  0
   -2.8818   -0.7868   -7.0659 F   0  0  0  0  0  0  0  0  0  0  0  0
    1.3649    0.2669   -7.6472 Cl  0  0  0  0  0  0  0  0  0  0  0  0
   -1.3954   -0.4248   -2.4684 N   0  0  0  0  0  0  0  0  0  0  0  0
   -1.9347   -0.3961   -0.2601 N   0  0  0  0  0  0  0  0  0  0  0  0
   -0.1014    0.7485   -0.9954 O   0  0  0  0  0  0  0  0  0  0  0  0
   -0.7538    0.4302    5.9314 C   0  0  0  0  0  0  0  0  0  0  0  0
    1.4508    0.1052    7.5896 N   0  0  0  0  0  0  0  0  0  0  0  0
    3.0028   -0.8376    4.5524 O   0  0  0  0  0  0  0  0  0  0  0  0
   -2.4635   -0.6624   -4.7810 H   0  0  0  0  0  0  0  0  0  0  0  0
    1.2419    0.2626   -2.8445 H   0  0  0  0  0  0  0  0  0  0  0  0
    2.3013    0.5267   -5.0136 H   0  0  0  0  0  0  0  0  0  0  0  0
   -2.6466   -2.0377    1.6267 H   0  0  0  0  0  0  0  0  0  0  0  0
   -2.6367   -1.6160    4.0475 H   0  0  0  0  0  0  0  0  0  0  0  0
   -1.0573    2.3020    3.3488 H   0  0  0  0  0  0  0  0  0  0  0  0
   -1.0950    1.9064    0.9386 H   0  0  0  0  0  0  0  0  0  0  0  0
   -1.7727    1.0282    7.7378 H   0  0  0  0  0  0  0  0  0  0  0  0
    0.2386    0.7066    9.1372 H   0  0  0  0  0  0  0  0  0  0  0  0
    0.5971   -0.2163    4.3606 H   0  0  0  0  0  0  0  0  0  0  0  0
    3.5883   -0.4913    7.6104 H   0  0  0  0  0  0  0  0  0  0  0  0
    5.7736   -1.0625    7.2098 H   0  0  0  0  0  0  0  0  0  0  0  0
    5.1779   -2.1535    5.9560 H   0  0  0  0  0  0  0  0  0  0  0  0
    5.5984   -0.4861    5.5508 H   0  0  0  0  0  0  0  0  0  0  0  0
   -2.2967   -0.8665   -2.5714 H   0  0  0  0  0  0  0  0  0  0  0  0
   -2.5574   -1.1524   -0.5024 H   0  0  0  0  0  0  0  0  0  0  0  0
    2.8539   -0.5942    5.7432 C   0  0  0  0  0  0  0  0  0  0  0  0
  1  2  2  0
  1 20  1  0
  1 32  1  0
  2  3  1  0
  2 26  1  0
  3  4  2  0
  3 33  1  0
  4 19  1  0
  4 34  1  0
  5 26  1  0
  5 27  1  0
  5 28  2  0
  6  7  2  0
  6 11  1  0
  6 27  1  0
  7  8  1  0
  7 35  1  0
  8  9  2  0
  8 36  1  0
  9 10  1  0
  9 12  1  0
 10 11  2  0
 10 37  1  0
 11 38  1  0
 12 29  1  0
 13 14  2  0
 13 29  1  0
 13 39  1  0
 14 30  1  0
 14 40  1  0
 15 16  1  0
 15 30  2  0
 15 48  1  0
 16 29  2  0
 16 41  1  0
 17 18  1  0
 17 48  1  0
 17 42  1  0
 18 43  1  0
 18 44  1  0
 18 45  1  0
 19 20  2  0
 19 25  1  0
 20 21  1  0
 21 22  1  6
 21 23  1  0
 21 24  1  0
 26 46  1  0
 27 47  1  0
 48 31  2  0
M  END
