
     RDKit          3D

 60 64  0  0  0  0  0  0  0  0999 V2000
    0.8590    0.0331    3.8775 C   0  0  0  0  0  0  0  0  0  0  0  0
   -0.4551    0.2522    4.3015 C   0  0  0  0  0  0  0  0  0  0  0  0
   -0.7533    0.2082    5.6514 C   0  0  0  0  0  0  0  0  0  0  0  0
    0.2234   -0.0513    6.6085 C   0  0  0  0  0  0  0  0  0  0  0  0
    1.5340   -0.2662    6.1805 C   0  0  0  0  0  0  0  0  0  0  0  0
    1.8447   -0.2231    4.8376 C   0  0  0  0  0  0  0  0  0  0  0  0
   -0.1685   -0.0872    8.0331 C   0  0  0  0  0  0  0  0  0  0  0  0
    0.8458   -0.3563    8.8454 O   0  0  0  0  0  0  0  0  0  0  0  0
   -1.2947    0.1063    8.4286 O   0  0  0  0  0  0  0  0  0  0  0  0
    1.2764    0.0610    2.5514 N   0  0  0  0  0  0  0  0  0  0  0  0
    0.5249    0.1511    1.4184 C   0  0  0  0  0  0  0  0  0  0  0  0
    1.3028    0.1702    0.1471 C   0  0  0  0  0  0  0  0  0  0  0  0
    0.6676   -0.2655   -1.0068 C   0  0  0  0  0  0  0  0  0  0  0  0
    1.3116   -0.2931   -2.2412 C   0  0  0  0  0  0  0  0  0  0  0  0
    2.6455    0.1230   -2.3268 C   0  0  0  0  0  0  0  0  0  0  0  0
    3.2608    0.6057   -1.1688 C   0  0  0  0  0  0  0  0  0  0  0  0
    2.6144    0.6316    0.0513 C   0  0  0  0  0  0  0  0  0  0  0  0
   -0.6920    0.1922    1.4199 O   0  0  0  0  0  0  0  0  0  0  0  0
    0.5399   -0.8132   -3.4417 C   0  0  2  0  0  0  0  0  0  0  0  0
    1.2364   -0.4800   -4.7605 C   0  0  0  0  0  0  0  0  0  0  0  0
    2.7169   -0.7885   -4.6615 C   0  0  0  0  0  0  0  0  0  0  0  0
    3.4336    0.0884   -3.6287 C   0  0  2  0  0  0  0  0  0  0  0  0
    4.8304   -0.5022   -3.4021 C   0  0  0  0  0  0  0  0  0  0  0  0
    3.5812    1.5213   -4.1602 C   0  0  0  0  0  0  0  0  0  0  0  0
   -0.8832   -0.3222   -3.4470 C   0  0  0  0  0  0  0  0  0  0  0  0
   -1.1542    1.0707   -3.4344 C   0  0  0  0  0  0  0  0  0  0  0  0
   -2.3456    1.5965   -3.4589 N   0  0  0  0  0  0  0  0  0  0  0  0
   -3.4166    0.7642   -3.4927 C   0  0  0  0  0  0  0  0  0  0  0  0
   -3.2685   -0.6434   -3.5041 C   0  0  0  0  0  0  0  0  0  0  0  0
   -1.9558   -1.1670   -3.4830 C   0  0  0  0  0  0  0  0  0  0  0  0
   -4.7142    1.3209   -3.5094 C   0  0  0  0  0  0  0  0  0  0  0  0
   -5.8153    0.5052   -3.5256 C   0  0  0  0  0  0  0  0  0  0  0  0
   -5.6672   -0.8973   -3.5358 C   0  0  0  0  0  0  0  0  0  0  0  0
   -4.4195   -1.4611   -3.5272 C   0  0  0  0  0  0  0  0  0  0  0  0
   -1.2433    0.4533    3.5964 H   0  0  0  0  0  0  0  0  0  0  0  0
   -1.7754    0.3820    5.9602 H   0  0  0  0  0  0  0  0  0  0  0  0
    2.3263   -0.4691    6.8875 H   0  0  0  0  0  0  0  0  0  0  0  0
    2.8674   -0.3949    4.5246 H   0  0  0  0  0  0  0  0  0  0  0  0
    0.5376   -0.3674    9.7635 H   0  0  0  0  0  0  0  0  0  0  0  0
    2.2666   -0.0840    2.4242 H   0  0  0  0  0  0  0  0  0  0  0  0
   -0.3596   -0.6026   -0.9409 H   0  0  0  0  0  0  0  0  0  0  0  0
    4.2768    0.9755   -1.2176 H   0  0  0  0  0  0  0  0  0  0  0  0
    3.1377    1.0371    0.9086 H   0  0  0  0  0  0  0  0  0  0  0  0
    0.5109   -1.9064   -3.3563 H   0  0  0  0  0  0  0  0  0  0  0  0
    1.0844    0.5719   -5.0182 H   0  0  0  0  0  0  0  0  0  0  0  0
    0.7737   -1.0581   -5.5625 H   0  0  0  0  0  0  0  0  0  0  0  0
    3.2001   -0.6580   -5.6328 H   0  0  0  0  0  0  0  0  0  0  0  0
    2.8438   -1.8426   -4.3897 H   0  0  0  0  0  0  0  0  0  0  0  0
    5.4571    0.1296   -2.7722 H   0  0  0  0  0  0  0  0  0  0  0  0
    4.7719   -1.4897   -2.9418 H   0  0  0  0  0  0  0  0  0  0  0  0
    5.3423   -0.6112   -4.3602 H   0  0  0  0  0  0  0  0  0  0  0  0
    4.0902    2.1599   -3.4364 H   0  0  0  0  0  0  0  0  0  0  0  0
    4.1729    1.5231   -5.0785 H   0  0  0  0  0  0  0  0  0  0  0  0
    2.6167    1.9810   -4.3817 H   0  0  0  0  0  0  0  0  0  0  0  0
   -0.3221    1.7688   -3.3943 H   0  0  0  0  0  0  0  0  0  0  0  0
   -1.8131   -2.2422   -3.4893 H   0  0  0  0  0  0  0  0  0  0  0  0
   -4.8158    2.3987   -3.5020 H   0  0  0  0  0  0  0  0  0  0  0  0
   -6.8079    0.9363   -3.5338 H   0  0  0  0  0  0  0  0  0  0  0  0
   -6.5463   -1.5279   -3.5511 H   0  0  0  0  0  0  0  0  0  0  0  0
   -4.3014   -2.5379   -3.5357 H   0  0  0  0  0  0  0  0  0  0  0  0
  1  2  2  0
  1  6  1  0
  1 10  1  0
  2  3  1  0
  2 35  1  0
  3  4  2  0
  3 36  1  0
  4  5  1  0
  4  7  1  0
  5  6  2  0
  5 37  1  0
  6 38  1  0
  7  8  1  0
  7  9  2  0
  8 39  1  0
 10 11  1  0
 10 40  1  0
 11 12  1  0
 11 18  2  0
 12 13  2  0
 12 17  1  0
 13 14  1  0
 13 41  1  0
 14 15  2  0
 14 19  1  0
 15 16  1  0
 15 22  1  0
 16 17  2  0
 16 42  1  0
 17 43  1  0
 19 20  1  0
 19 25  1  0
 19 44  1  1
 20 21  1  0
 20 45  1  0
 20 46  1  0
 21 22  1  0
 21 47  1  0
 21 48  1  0
 22 23  1  1
 22 24  1  0
 23 49  1  0
 23 50  1  0
 23 51  1  0
 24 52  1  0
 24 53  1  0
 24 54  1  0
 25 26  2  0
 25 30  1  0
 26 27  1  0
 26 55  1  0
 27 28  2  0
 28 29  1  0
 28 31  1  0
 29 30  2  0
 29 34  1  0
 30 56  1  0
 31 32  2  0
 31 57  1  0
 32 33  1  0
 32 58  1  0
 33 34  2  0
 33 59  1  0
 34 60  1  0
M  END
