
     RDKit          3D

 35 36  0  0  0  0  0  0  0  0999 V2000
    3.8532   -0.8658   -0.2947 C   0  0  0  0  0  0  0  0  0  0  0  0
    4.9705    0.1196    0.1140 C   0  0  0  0  0  0  0  0  0  0  0  0
    4.2612    1.4538    0.4101 C   0  0  0  0  0  0  0  0  0  0  0  0
    2.8019    1.0726    0.6443 C   0  0  0  0  0  0  0  0  0  0  0  0
    2.5621   -0.0381   -0.3800 C   0  0  2  0  0  0  0  0  0  0  0  0
    1.3036   -0.8673   -0.1694 C   0  0  0  0  0  0  0  0  0  0  0  0
    0.0295   -0.0458   -0.2879 C   0  0  0  0  0  0  0  0  0  0  0  0
   -1.2380   -0.8675   -0.1635 C   0  0  0  0  0  0  0  0  0  0  0  0
   -1.2242   -2.0942   -0.1303 O   0  0  0  0  0  0  0  0  0  0  0  0
   -2.3872   -0.1762   -0.0957 N   0  0  0  0  0  0  0  0  0  0  0  0
   -2.5151    1.2770   -0.1417 C   0  0  0  0  0  0  0  0  0  0  0  0
   -4.0125    1.4912   -0.3310 C   0  0  0  0  0  0  0  0  0  0  0  0
   -4.6262    0.2984    0.3956 C   0  0  0  0  0  0  0  0  0  0  0  0
   -3.6764   -0.8428    0.0529 C   0  0  0  0  0  0  0  0  0  0  0  0
    4.0688   -1.3823   -1.2315 H   0  0  0  0  0  0  0  0  0  0  0  0
    3.7326   -1.6382    0.4703 H   0  0  0  0  0  0  0  0  0  0  0  0
    5.4967   -0.2444    0.9979 H   0  0  0  0  0  0  0  0  0  0  0  0
    5.7210    0.2334   -0.6691 H   0  0  0  0  0  0  0  0  0  0  0  0
    4.7046    1.9914    1.2497 H   0  0  0  0  0  0  0  0  0  0  0  0
    4.3240    2.1154   -0.4577 H   0  0  0  0  0  0  0  0  0  0  0  0
    2.6662    0.6745    1.6566 H   0  0  0  0  0  0  0  0  0  0  0  0
    2.1214    1.9194    0.5361 H   0  0  0  0  0  0  0  0  0  0  0  0
    2.5125    0.4294   -1.3725 H   0  0  0  0  0  0  0  0  0  0  0  0
    1.2839   -1.6818   -0.8980 H   0  0  0  0  0  0  0  0  0  0  0  0
    1.3476   -1.3406    0.8172 H   0  0  0  0  0  0  0  0  0  0  0  0
    0.0168    0.7467    0.4663 H   0  0  0  0  0  0  0  0  0  0  0  0
    0.0104    0.4760   -1.2522 H   0  0  0  0  0  0  0  0  0  0  0  0
   -2.1692    1.7293    0.7931 H   0  0  0  0  0  0  0  0  0  0  0  0
   -1.9277    1.7076   -0.9543 H   0  0  0  0  0  0  0  0  0  0  0  0
   -4.3412    2.4529    0.0605 H   0  0  0  0  0  0  0  0  0  0  0  0
   -4.2636    1.4592   -1.3934 H   0  0  0  0  0  0  0  0  0  0  0  0
   -4.6286    0.4767    1.4733 H   0  0  0  0  0  0  0  0  0  0  0  0
   -5.6503    0.0877    0.0906 H   0  0  0  0  0  0  0  0  0  0  0  0
   -3.9676   -1.3320   -0.8816 H   0  0  0  0  0  0  0  0  0  0  0  0
   -3.6355   -1.6088    0.8273 H   0  0  0  0  0  0  0  0  0  0  0  0
  9  8  2  0
 11 12  1  0
 11 10  1  0
 12 13  1  0
  8 10  1  0
  8  7  1  0
 10 14  1  0
  6  7  1  0
  6  5  1  0
  1  5  1  0
  1  2  1  0
 13 14  1  0
  5  4  1  0
  2  3  1  0
  4  3  1  0
  1 15  1  0
  1 16  1  0
  2 17  1  0
  2 18  1  0
  3 19  1  0
  3 20  1  0
  4 21  1  0
  4 22  1  0
  5 23  1  6
  6 24  1  0
  6 25  1  0
  7 26  1  0
  7 27  1  0
 11 28  1  0
 11 29  1  0
 12 30  1  0
 12 31  1  0
 13 32  1  0
 13 33  1  0
 14 34  1  0
 14 35  1  0
M  END
