
     RDKit          3D

 22 23  0  0  0  0  0  0  0  0999 V2000
   -2.7890    0.2493    0.0151 C   0  0  0  0  0  0  0  0  0  0  0  0
   -4.1594    0.8199    0.1443 C   0  0  0  0  0  0  0  0  0  0  0  0
   -1.5572    0.9179    0.1425 C   0  0  0  0  0  0  0  0  0  0  0  0
    1.6489   -1.1032    0.2363 C   0  0  0  0  0  0  0  0  0  0  0  0
    1.4964    1.2437   -0.2560 C   0  0  0  0  0  0  0  0  0  0  0  0
    3.0324   -1.0073    0.2538 C   0  0  0  0  0  0  0  0  0  0  0  0
    2.8786    1.3386   -0.2290 C   0  0  0  0  0  0  0  0  0  0  0  0
    3.6531    0.2130    0.0230 C   0  0  0  0  0  0  0  0  0  0  0  0
   -0.5954   -0.0545   -0.0479 C   0  0  0  0  0  0  0  0  0  0  0  0
   -1.2785   -1.1965   -0.2669 N   0  0  0  0  0  0  0  0  0  0  0  0
    0.8629    0.0212   -0.0239 C   0  0  0  0  0  0  0  0  0  0  0  0
   -2.5975   -1.0344   -0.2391 N   0  0  0  0  0  0  0  0  0  0  0  0
   -4.3109    1.6483   -0.5483 H   0  0  0  0  0  0  0  0  0  0  0  0
   -4.9151    0.0635   -0.0621 H   0  0  0  0  0  0  0  0  0  0  0  0
   -4.3346    1.2045    1.1499 H   0  0  0  0  0  0  0  0  0  0  0  0
   -1.3967    1.9608    0.3631 H   0  0  0  0  0  0  0  0  0  0  0  0
    3.6258   -1.8887    0.4588 H   0  0  0  0  0  0  0  0  0  0  0  0
    0.9049    2.1244   -0.4719 H   0  0  0  0  0  0  0  0  0  0  0  0
    3.3522    2.2940   -0.4135 H   0  0  0  0  0  0  0  0  0  0  0  0
    4.7324    0.2869    0.0403 H   0  0  0  0  0  0  0  0  0  0  0  0
   -0.8997   -2.1023   -0.4923 H   0  0  0  0  0  0  0  0  0  0  0  0
    1.1887   -2.0608    0.4473 H   0  0  0  0  0  0  0  0  0  0  0  0
  1  2  1  0
  1  3  1  0
  1 12  2  0
  3  9  2  0
  4  6  2  0
  4 11  1  0
  5  7  1  0
  5 11  2  0
  6  8  1  0
  7  8  2  0
  9 10  1  0
  9 11  1  0
 10 12  1  0
  2 13  1  0
  2 14  1  0
  2 15  1  0
  3 16  1  0
  4 22  1  0
  6 17  1  0
  5 18  1  0
  7 19  1  0
  8 20  1  0
 10 21  1  0
M  END
