
     RDKit          3D

 58 61  0  0  0  0  0  0  0  0999 V2000
   10.3945    0.0182   -0.4641 C   0  0  0  0  0  0  0  0  0  0  0  0
    9.0085    0.0509   -0.0586 N   0  0  0  0  0  0  0  0  0  0  0  0
    8.2750    1.1031   -0.7289 C   0  0  0  0  0  0  0  0  0  0  0  0
    6.8434    1.1693   -0.2303 C   0  0  0  0  0  0  0  0  0  0  0  0
    8.3547   -1.2215   -0.2787 C   0  0  0  0  0  0  0  0  0  0  0  0
    6.9249   -1.1875    0.2223 C   0  0  0  0  0  0  0  0  0  0  0  0
    6.1824   -0.1063   -0.4132 N   0  0  0  0  0  0  0  0  0  0  0  0
    4.7921   -0.1356   -0.2471 C   0  0  0  0  0  0  0  0  0  0  0  0
    4.0700   -1.2879   -0.5871 C   0  0  0  0  0  0  0  0  0  0  0  0
    2.6997   -1.3435   -0.4487 C   0  0  0  0  0  0  0  0  0  0  0  0
    4.0549    0.9513    0.2214 C   0  0  0  0  0  0  0  0  0  0  0  0
    2.6700    0.9077    0.3485 C   0  0  0  0  0  0  0  0  0  0  0  0
    1.9670   -0.2484    0.0248 C   0  0  0  0  0  0  0  0  0  0  0  0
    0.5872   -0.4243    0.1383 N   0  0  0  0  0  0  0  0  0  0  0  0
   -0.3967    0.4148    0.5460 C   0  0  0  0  0  0  0  0  0  0  0  0
   -0.1139    1.6744    0.8594 N   0  0  0  0  0  0  0  0  0  0  0  0
   -1.1467    2.4213    1.2373 C   0  0  0  0  0  0  0  0  0  0  0  0
   -2.4280    1.9417    1.3186 C   0  0  0  0  0  0  0  0  0  0  0  0
   -3.7392    2.9548    1.8049 Cl  0  0  0  0  0  0  0  0  0  0  0  0
   -2.6294    0.5837    0.9814 C   0  0  0  0  0  0  0  0  0  0  0  0
   -3.8637    0.0356    1.0529 N   0  0  0  0  0  0  0  0  0  0  0  0
   -4.2128   -1.2926    0.7820 C   0  0  0  0  0  0  0  0  0  0  0  0
   -3.4522   -2.3832    1.1970 C   0  0  0  0  0  0  0  0  0  0  0  0
   -3.8794   -3.6747    0.9296 C   0  0  0  0  0  0  0  0  0  0  0  0
   -5.0787   -3.9007    0.2684 C   0  0  0  0  0  0  0  0  0  0  0  0
   -5.8516   -2.8235   -0.1383 C   0  0  0  0  0  0  0  0  0  0  0  0
   -5.4129   -1.5379    0.1151 C   0  0  0  0  0  0  0  0  0  0  0  0
   -6.2038   -0.4680   -0.2513 O   0  0  0  0  0  0  0  0  0  0  0  0
   -5.9230    0.1472   -1.4220 C   0  0  0  0  0  0  0  0  0  0  0  0
   -6.8351    1.2836   -1.6388 C   0  0  0  0  0  0  0  0  0  0  0  0
   -6.7557    2.0202   -2.7420 C   0  0  0  0  0  0  0  0  0  0  0  0
   -5.0438   -0.2152   -2.1539 O   0  0  0  0  0  0  0  0  0  0  0  0
   -1.6074   -0.1498    0.5887 N   0  0  0  0  0  0  0  0  0  0  0  0
   10.5284   -0.1833   -1.5384 H   0  0  0  0  0  0  0  0  0  0  0  0
   10.8733    0.9730   -0.2409 H   0  0  0  0  0  0  0  0  0  0  0  0
   10.9254   -0.7592    0.0877 H   0  0  0  0  0  0  0  0  0  0  0  0
    8.7560    2.0627   -0.5261 H   0  0  0  0  0  0  0  0  0  0  0  0
    8.2723    0.9652   -1.8246 H   0  0  0  0  0  0  0  0  0  0  0  0
    6.8434    1.4862    0.8243 H   0  0  0  0  0  0  0  0  0  0  0  0
    6.3158    1.9357   -0.8005 H   0  0  0  0  0  0  0  0  0  0  0  0
    8.3575   -1.5032   -1.3463 H   0  0  0  0  0  0  0  0  0  0  0  0
    8.8958   -2.0027    0.2606 H   0  0  0  0  0  0  0  0  0  0  0  0
    6.4604   -2.1458   -0.0040 H   0  0  0  0  0  0  0  0  0  0  0  0
    6.9214   -1.0719    1.3168 H   0  0  0  0  0  0  0  0  0  0  0  0
    4.5822   -2.1552   -0.9830 H   0  0  0  0  0  0  0  0  0  0  0  0
    2.1822   -2.2545   -0.7277 H   0  0  0  0  0  0  0  0  0  0  0  0
    4.5494    1.8678    0.5133 H   0  0  0  0  0  0  0  0  0  0  0  0
    2.1522    1.7783    0.7158 H   0  0  0  0  0  0  0  0  0  0  0  0
    0.2509   -1.3460   -0.0969 H   0  0  0  0  0  0  0  0  0  0  0  0
   -0.9382    3.4553    1.4896 H   0  0  0  0  0  0  0  0  0  0  0  0
   -4.6172    0.6555    1.3102 H   0  0  0  0  0  0  0  0  0  0  0  0
   -2.5287   -2.2214    1.7318 H   0  0  0  0  0  0  0  0  0  0  0  0
   -3.2750   -4.5100    1.2573 H   0  0  0  0  0  0  0  0  0  0  0  0
   -5.4152   -4.9092    0.0712 H   0  0  0  0  0  0  0  0  0  0  0  0
   -6.7924   -2.9766   -0.6512 H   0  0  0  0  0  0  0  0  0  0  0  0
   -7.5687    1.4952   -0.8714 H   0  0  0  0  0  0  0  0  0  0  0  0
   -6.0286    1.8179   -3.5175 H   0  0  0  0  0  0  0  0  0  0  0  0
   -7.4251    2.8536   -2.9017 H   0  0  0  0  0  0  0  0  0  0  0  0
  2  1  1  0
  2  5  1  0
  2  3  1  0
  5  6  1  0
  3  4  1  0
  6  7  1  0
  4  7  1  0
  7  8  1  0
 32 29  2  0
  8  9  2  0
  8 11  1  0
  9 10  1  0
 25 26  2  0
 25 24  1  0
 26 27  1  0
 29 30  1  0
 29 28  1  0
 31 30  2  0
 11 12  2  0
 10 13  2  0
 24 23  2  0
 27 28  1  0
 27 22  2  0
 12 13  1  0
 13 14  1  0
 23 22  1  0
 22 21  1  0
 14 15  1  0
 33 15  1  0
 33 20  2  0
 15 16  2  0
 21 20  1  0
 20 18  1  0
 16 17  1  0
 18 17  2  0
 18 19  1  0
  1 34  1  0
  1 35  1  0
  1 36  1  0
  3 37  1  0
  3 38  1  0
  4 39  1  0
  4 40  1  0
  5 41  1  0
  5 42  1  0
  6 43  1  0
  6 44  1  0
  9 45  1  0
 10 46  1  0
 11 47  1  0
 12 48  1  0
 14 49  1  0
 17 50  1  0
 21 51  1  0
 23 52  1  0
 24 53  1  0
 25 54  1  0
 26 55  1  0
 30 56  1  0
 31 57  1  0
 31 58  1  0
M  END
