
     RDKit          3D

  5  4  0  0  0  0  0  0  0  0999 V2000
   -0.5439    0.5728   -0.8194 C   0  0  0  0  0  0  0  0  0  0  0  0
   -1.9760    1.7111   -0.1265 Br  0  0  0  0  0  0  0  0  0  0  0  0
    0.1682    1.1995   -1.3476 H   0  0  0  0  0  0  0  0  0  0  0  0
   -0.0633    0.0758    0.0182 H   0  0  0  0  0  0  0  0  0  0  0  0
   -0.9808   -0.1575   -1.4944 H   0  0  0  0  0  0  0  0  0  0  0  0
  1  2  1  0
  1  3  1  0
  1  4  1  0
  1  5  1  0
M  END
