
     RDKit          3D

 60 63  0  0  0  0  0  0  0  0999 V2000
    8.7300    0.3383    0.1992 C   0  0  0  0  0  0  0  0  0  0  0  0
    9.9629    0.7542   -0.2441 C   0  0  0  0  0  0  0  0  0  0  0  0
    9.0099    1.7908   -2.0172 C   0  0  0  0  0  0  0  0  0  0  0  0
    7.7274    1.4152   -1.6461 C   0  0  0  0  0  0  0  0  0  0  0  0
    7.5579    0.6560   -0.4885 C   0  0  0  0  0  0  0  0  0  0  0  0
    4.0056   -0.1415    0.3936 C   0  0  0  0  0  0  0  0  0  0  0  0
    4.1108   -0.2260    1.7772 C   0  0  0  0  0  0  0  0  0  0  0  0
    1.7332   -0.9791    0.5284 C   0  0  0  0  0  0  0  0  0  0  0  0
    2.8065   -0.5073   -0.2146 C   0  0  0  0  0  0  0  0  0  0  0  0
    0.4870   -1.3492   -0.1839 C   0  0  0  0  0  0  0  0  0  0  0  0
   -0.6707   -2.7151   -1.8016 C   0  0  0  0  0  0  0  0  0  0  0  0
   -1.8611   -0.9799   -0.6381 C   0  0  0  0  0  0  0  0  0  0  0  0
   -0.6869   -0.6377    0.0271 C   0  0  0  0  0  0  0  0  0  0  0  0
   -7.2125    1.3769   -0.0173 C   0  0  0  0  0  0  0  0  0  0  0  0
   -8.1993    0.4227    0.2090 C   0  0  0  0  0  0  0  0  0  0  0  0
   -7.8662   -0.9215    0.1885 C   0  0  0  0  0  0  0  0  0  0  0  0
   -6.5591   -1.2831   -0.0435 C   0  0  0  0  0  0  0  0  0  0  0  0
   -7.5054    2.8338   -0.0106 C   0  0  0  0  0  0  0  0  0  0  0  0
   -9.1719    4.4655    0.3008 C   0  0  0  0  0  0  0  0  0  0  0  0
    8.6391   -0.3902    1.3232 F   0  0  0  0  0  0  0  0  0  0  0  0
   10.1103    1.4786   -1.3473 N   0  0  0  0  0  0  0  0  0  0  0  0
    6.3593    0.2097    0.0372 N   0  0  0  0  0  0  0  0  0  0  0  0
    5.1019    0.3751   -0.4728 C   0  0  0  0  0  0  0  0  0  0  0  0
    4.8805    0.8914   -1.5499 O   0  0  0  0  0  0  0  0  0  0  0  0
    3.0403   -0.6944    2.5224 C   0  0  0  0  0  0  0  0  0  0  0  0
    1.8480   -1.0819    1.9231 C   0  0  0  0  0  0  0  0  0  0  0  0
    0.6254   -3.0952    2.4856 N   0  0  0  0  0  0  0  0  0  0  0  0
    0.4857   -2.3889   -1.1105 C   0  0  0  0  0  0  0  0  0  0  0  0
   -1.8475   -2.0216   -1.5628 C   0  0  0  0  0  0  0  0  0  0  0  0
   -3.0830   -0.1763   -0.3399 C   0  0  0  0  0  0  0  0  0  0  0  0
   -4.2586   -0.8400   -0.5145 N   0  0  0  0  0  0  0  0  0  0  0  0
   -5.5425   -0.3542   -0.2715 C   0  0  0  0  0  0  0  0  0  0  0  0
   -5.8966    0.9901   -0.2633 C   0  0  0  0  0  0  0  0  0  0  0  0
   -6.6777    3.6866   -0.2241 O   0  0  0  0  0  0  0  0  0  0  0  0
   -8.7727    3.0951    0.2588 O   0  0  0  0  0  0  0  0  0  0  0  0
   10.8526    0.4910    0.3178 H   0  0  0  0  0  0  0  0  0  0  0  0
    9.1407    2.3817   -2.9162 H   0  0  0  0  0  0  0  0  0  0  0  0
    6.8916    1.7137   -2.2552 H   0  0  0  0  0  0  0  0  0  0  0  0
    5.0048    0.0910    2.2993 H   0  0  0  0  0  0  0  0  0  0  0  0
    0.9683   -1.4476    3.8243 H   0  0  0  0  0  0  0  0  0  0  0  0
   -0.2002   -1.1986    2.5475 H   0  0  0  0  0  0  0  0  0  0  0  0
    2.7070   -0.4211   -1.2894 H   0  0  0  0  0  0  0  0  0  0  0  0
   -0.6573   -3.5149   -2.5296 H   0  0  0  0  0  0  0  0  0  0  0  0
   -0.6928    0.1953    0.7185 H   0  0  0  0  0  0  0  0  0  0  0  0
   -9.2237    0.7063    0.4004 H   0  0  0  0  0  0  0  0  0  0  0  0
   -8.6125   -1.6858    0.3583 H   0  0  0  0  0  0  0  0  0  0  0  0
  -10.2317    4.4588    0.5363 H   0  0  0  0  0  0  0  0  0  0  0  0
   -8.6327    5.0124    1.0738 H   0  0  0  0  0  0  0  0  0  0  0  0
   -9.0170    4.9530   -0.6611 H   0  0  0  0  0  0  0  0  0  0  0  0
    6.4358   -0.3399    0.8793 H   0  0  0  0  0  0  0  0  0  0  0  0
    3.1381   -0.7623    3.5989 H   0  0  0  0  0  0  0  0  0  0  0  0
    1.4296   -3.5886    2.8526 H   0  0  0  0  0  0  0  0  0  0  0  0
   -0.1780   -3.4625    2.9794 H   0  0  0  0  0  0  0  0  0  0  0  0
    1.3957   -2.9474   -1.2905 H   0  0  0  0  0  0  0  0  0  0  0  0
   -2.7326   -2.2839   -2.1288 H   0  0  0  0  0  0  0  0  0  0  0  0
   -4.1950   -1.8294   -0.6978 H   0  0  0  0  0  0  0  0  0  0  0  0
   -5.1519    1.7465   -0.4476 H   0  0  0  0  0  0  0  0  0  0  0  0
    0.7544   -1.6758    2.7724 C   0  0  0  0  0  0  0  0  0  0  0  0
   -6.2345   -2.5828   -0.0573 F   0  0  0  0  0  0  0  0  0  0  0  0
   -3.0124    0.9742    0.0506 O   0  0  0  0  0  0  0  0  0  0  0  0
 20  1  1  0
  2  1  2  0
  2 21  1  0
  1  5  1  0
 21  3  2  0
  5 22  1  0
  5  4  2  0
 22 23  1  0
  3  4  1  0
  7 25  2  0
  7  6  1  0
 23  6  1  0
 23 24  2  0
 25 26  1  0
  6  9  2  0
 26 58  1  0
 26  8  2  0
  9  8  1  0
 28 11  2  0
 28 10  1  0
 58 27  1  0
  8 10  1  0
 11 29  1  0
 10 13  2  0
 29 12  2  0
 13 12  1  0
 12 30  1  0
 30 60  2  0
 30 31  1  0
 31 32  1  0
 19 35  1  0
 33 32  1  0
 33 14  2  0
 32 17  2  0
 35 18  1  0
 14 18  1  0
 14 15  1  0
 18 34  2  0
 17 59  1  0
 17 16  1  0
 15 16  2  0
  2 36  1  0
  3 37  1  0
  4 38  1  0
  7 39  1  0
 58 40  1  0
 58 41  1  0
  9 42  1  0
 11 43  1  0
 13 44  1  0
 15 45  1  0
 16 46  1  0
 19 47  1  0
 19 48  1  0
 19 49  1  0
 22 50  1  0
 25 51  1  0
 27 52  1  0
 27 53  1  0
 28 54  1  0
 29 55  1  0
 31 56  1  0
 33 57  1  0
M  END
