
     RDKit          3D

 21 22  0  0  0  0  0  0  0  0999 V2000
  -12.1679  -20.2097  -41.3272 C   0  0  0  0  0  0  0  0  0  0  0  0
  -14.7226  -20.1845  -40.2263 C   0  0  0  0  0  0  0  0  0  0  0  0
  -19.4340  -18.3252  -38.7793 C   0  0  0  0  0  0  0  0  0  0  0  0
  -18.8344  -19.3244  -38.7129 N   0  0  0  0  0  0  0  0  0  0  0  0
  -18.1681  -20.5157  -38.6065 C   0  0  0  0  0  0  0  0  0  0  0  0
  -16.9321  -20.7219  -39.0841 C   0  0  0  0  0  0  0  0  0  0  0  0
  -16.0464  -19.8285  -39.7807 C   0  0  0  0  0  0  0  0  0  0  0  0
  -16.2317  -18.5157  -40.1694 C   0  0  0  0  0  0  0  0  0  0  0  0
  -15.1280  -18.0658  -40.8077 N   0  0  0  0  0  0  0  0  0  0  0  0
  -14.1819  -19.0528  -40.8649 C   0  0  0  0  0  0  0  0  0  0  0  0
  -12.9054  -19.0457  -41.4220 C   0  0  0  0  0  0  0  0  0  0  0  0
  -12.6866  -21.3511  -40.6945 C   0  0  0  0  0  0  0  0  0  0  0  0
  -13.9539  -21.3492  -40.1442 C   0  0  0  0  0  0  0  0  0  0  0  0
  -11.1720  -20.2442  -41.7492 H   0  0  0  0  0  0  0  0  0  0  0  0
  -18.7136  -21.2984  -38.0997 H   0  0  0  0  0  0  0  0  0  0  0  0
  -16.5514  -21.7219  -38.9116 H   0  0  0  0  0  0  0  0  0  0  0  0
  -17.0760  -17.8604  -40.0393 H   0  0  0  0  0  0  0  0  0  0  0  0
  -15.0307  -17.1389  -41.1897 H   0  0  0  0  0  0  0  0  0  0  0  0
  -12.5085  -18.1652  -41.9103 H   0  0  0  0  0  0  0  0  0  0  0  0
  -12.0805  -22.2460  -40.6409 H   0  0  0  0  0  0  0  0  0  0  0  0
  -14.3393  -22.2387  -39.6607 H   0  0  0  0  0  0  0  0  0  0  0  0
 11  1  2  0
 11 10  1  0
  1 12  1  0
 10  9  1  0
 10  2  2  0
 12 13  2  0
  9  8  1  0
  2 13  1  0
  2  7  1  0
  8  7  2  0
  7  6  1  0
  3  4  3  0
  4  5  1  0
  6  5  2  0
  1 14  1  0
  5 15  1  0
  6 16  1  0
  8 17  1  0
  9 18  1  0
 11 19  1  0
 12 20  1  0
 13 21  1  0
M  CHG  1   4   1
M  END
