
     RDKit          3D

 52 55  0  0  0  0  0  0  0  0999 V2000
   -6.8980    0.4952   -0.5119 N   0  0  0  0  0  0  0  0  0  0  0  0
   -5.7056   -0.3274   -0.4530 C   0  0  1  0  0  0  0  0  0  0  0  0
   -4.4850    0.5433   -0.2340 C   0  0  0  0  0  0  0  0  0  0  0  0
   -4.5286    1.6193    0.3141 O   0  0  0  0  0  0  0  0  0  0  0  0
   -5.7706   -1.3975    0.6620 C   0  0  0  0  0  0  0  0  0  0  0  0
    2.2702   -0.8003    0.7035 C   0  0  0  0  0  0  0  0  0  0  0  0
    2.7329    1.0072   -0.7905 C   0  0  0  0  0  0  0  0  0  0  0  0
    3.6172   -1.1177    0.7401 C   0  0  0  0  0  0  0  0  0  0  0  0
    4.0784    0.6933   -0.7697 C   0  0  0  0  0  0  0  0  0  0  0  0
    7.7701   -2.1336    0.0573 C   0  0  0  0  0  0  0  0  0  0  0  0
   -8.1697   -1.3657    0.5364 C   0  0  0  0  0  0  0  0  0  0  0  0
   -8.1044   -0.3215   -0.5720 C   0  0  0  0  0  0  0  0  0  0  0  0
    8.2184   -0.6823    0.1403 C   0  0  0  0  0  0  0  0  0  0  0  0
    6.3074   -2.0684    0.4802 C   0  0  0  0  0  0  0  0  0  0  0  0
    0.1843    3.0054    0.5759 C   0  0  0  0  0  0  0  0  0  0  0  0
    6.9575    0.1095   -0.1137 C   0  0  0  0  0  0  0  0  0  0  0  0
    1.8063    0.2737   -0.0511 C   0  0  0  0  0  0  0  0  0  0  0  0
    4.5438   -0.3731    0.0090 C   0  0  0  0  0  0  0  0  0  0  0  0
   -2.0419    0.4061   -0.4200 C   0  0  0  0  0  0  0  0  0  0  0  0
   -0.3540    1.7086    0.1005 C   0  0  0  0  0  0  0  0  0  0  0  0
    0.3731    0.5665   -0.1121 C   0  0  0  0  0  0  0  0  0  0  0  0
   -1.7060    1.6005   -0.0892 N   0  0  0  0  0  0  0  0  0  0  0  0
   -6.9763   -2.1982    0.5955 N   0  0  0  0  0  0  0  0  0  0  0  0
   -3.3176   -0.0525   -0.6513 N   0  0  0  0  0  0  0  0  0  0  0  0
    5.8926   -0.7372    0.0443 N   0  0  0  0  0  0  0  0  0  0  0  0
    1.3584    3.1391    0.8464 O   0  0  0  0  0  0  0  0  0  0  0  0
   -0.7102   -0.7049   -0.5502 S   0  0  0  0  0  0  0  0  0  0  0  0
   -6.9369    1.0869    0.3107 H   0  0  0  0  0  0  0  0  0  0  0  0
   -5.6105   -0.8507   -1.4134 H   0  0  0  0  0  0  0  0  0  0  0  0
   -4.9033   -2.0593    0.6166 H   0  0  0  0  0  0  0  0  0  0  0  0
   -5.7425   -0.8931    1.6345 H   0  0  0  0  0  0  0  0  0  0  0  0
   -1.6455    3.8334    1.3435 H   0  0  0  0  0  0  0  0  0  0  0  0
   -0.3234    5.0065    1.1349 H   0  0  0  0  0  0  0  0  0  0  0  0
   -1.2245    4.3805   -0.2611 H   0  0  0  0  0  0  0  0  0  0  0  0
    1.5789   -1.3914    1.2913 H   0  0  0  0  0  0  0  0  0  0  0  0
    2.3973    1.8237   -1.4149 H   0  0  0  0  0  0  0  0  0  0  0  0
    3.9340   -1.9510    1.3515 H   0  0  0  0  0  0  0  0  0  0  0  0
    4.7543    1.2687   -1.3808 H   0  0  0  0  0  0  0  0  0  0  0  0
    7.8454   -2.4949   -0.9689 H   0  0  0  0  0  0  0  0  0  0  0  0
    8.3456   -2.8021    0.6937 H   0  0  0  0  0  0  0  0  0  0  0  0
   -8.2803   -0.8611    1.5026 H   0  0  0  0  0  0  0  0  0  0  0  0
   -9.0438   -2.0082    0.4104 H   0  0  0  0  0  0  0  0  0  0  0  0
   -8.9723    0.3396   -0.5313 H   0  0  0  0  0  0  0  0  0  0  0  0
   -8.1312   -0.8230   -1.5457 H   0  0  0  0  0  0  0  0  0  0  0  0
    8.5792   -0.4269    1.1415 H   0  0  0  0  0  0  0  0  0  0  0  0
    8.9997   -0.4087   -0.5675 H   0  0  0  0  0  0  0  0  0  0  0  0
    5.6940   -2.8332    0.0049 H   0  0  0  0  0  0  0  0  0  0  0  0
    6.2000   -2.1711    1.5640 H   0  0  0  0  0  0  0  0  0  0  0  0
   -6.9400   -2.7904   -0.2264 H   0  0  0  0  0  0  0  0  0  0  0  0
   -3.4015   -0.9439   -1.1175 H   0  0  0  0  0  0  0  0  0  0  0  0
    6.8951    1.2931   -0.3774 O   0  0  0  0  0  0  0  0  0  0  0  0
   -0.8055    4.1271    0.7145 C   0  0  0  0  0  0  0  0  0  0  0  0
 10 14  1  0
 10 13  1  0
 14 25  1  0
 13 16  1  0
  8  6  2  0
  8 18  1  0
 25 18  1  0
 25 16  1  0
  6 17  1  0
 18  9  2  0
 16 51  2  0
 17 21  1  0
 17  7  2  0
 52 15  1  0
  9  7  1  0
 21 20  2  0
 21 27  1  0
 15 20  1  0
 15 26  2  0
 20 22  1  0
 27 19  1  0
 22 19  2  0
 19 24  1  0
 24  3  1  0
  4  3  2  0
  3  2  1  0
  2  1  1  0
  2  5  1  0
  1 12  1  0
  5 23  1  0
 12 11  1  0
 23 11  1  0
  1 28  1  0
  2 29  1  6
  5 30  1  0
  5 31  1  0
 52 32  1  0
 52 33  1  0
 52 34  1  0
  6 35  1  0
  7 36  1  0
  8 37  1  0
  9 38  1  0
 10 39  1  0
 10 40  1  0
 11 41  1  0
 11 42  1  0
 12 43  1  0
 12 44  1  0
 13 45  1  0
 13 46  1  0
 14 47  1  0
 14 48  1  0
 23 49  1  0
 24 50  1  0
M  END
