
     RDKit          3D

 49 50  0  0  0  0  0  0  0  0999 V2000
    0.0383   -0.8197    0.0081 C   0  0  0  0  0  0  0  0  0  0  0  0
    2.3246   -0.5947   -0.8108 C   0  0  0  0  0  0  0  0  0  0  0  0
    2.4725   -1.9786   -0.7731 C   0  0  0  0  0  0  0  0  0  0  0  0
    1.4171   -2.7613   -0.3562 C   0  0  0  0  0  0  0  0  0  0  0  0
    0.2167   -2.1927    0.0282 C   0  0  0  0  0  0  0  0  0  0  0  0
   -5.4145    0.2520    1.0719 C   0  0  0  0  0  0  0  0  0  0  0  0
   -4.0915    1.5309   -0.9326 C   0  0  0  0  0  0  0  0  0  0  0  0
   -3.6032    0.3873   -0.3245 C   0  0  0  0  0  0  0  0  0  0  0  0
   -2.2918   -0.2164   -0.7392 C   0  0  0  0  0  0  0  0  0  0  0  0
    3.4804    0.2846   -1.1955 C   0  0  0  0  0  0  0  0  0  0  0  0
    4.2750    0.7388    0.0313 C   0  0  0  0  0  0  0  0  0  0  0  0
   -5.9868    1.4038    0.5068 C   0  0  0  0  0  0  0  0  0  0  0  0
   -5.3185    2.0544   -0.5114 C   0  0  0  0  0  0  0  0  0  0  0  0
   -1.2711   -0.2026    0.4047 C   0  0  0  0  0  0  0  0  0  0  0  0
    1.1106   -0.0403   -0.4185 C   0  0  0  0  0  0  0  0  0  0  0  0
    5.4862    1.5694   -0.3667 C   0  0  0  0  0  0  0  0  0  0  0  0
    6.8394    1.1243    1.5785 C   0  0  0  0  0  0  0  0  0  0  0  0
    7.1845    3.1002    0.3022 C   0  0  0  0  0  0  0  0  0  0  0  0
    1.5420   -4.0941   -0.3152 F   0  0  0  0  0  0  0  0  0  0  0  0
   -0.7802   -2.9984    0.4241 F   0  0  0  0  0  0  0  0  0  0  0  0
   -4.2514   -0.2396    0.6570 N   0  0  0  0  0  0  0  0  0  0  0  0
   -6.0212   -0.3852    2.1171 N   0  0  0  0  0  0  0  0  0  0  0  0
    6.2059    2.1361    0.7598 N   0  0  0  0  0  0  0  0  0  0  0  0
    3.4004   -2.4499   -1.0739 H   0  0  0  0  0  0  0  0  0  0  0  0
   -3.5259    2.0139   -1.7195 H   0  0  0  0  0  0  0  0  0  0  0  0
   -6.5068    2.9854   -2.0272 H   0  0  0  0  0  0  0  0  0  0  0  0
   -6.5404    3.8281   -0.4848 H   0  0  0  0  0  0  0  0  0  0  0  0
   -5.1182    3.9380   -1.5295 H   0  0  0  0  0  0  0  0  0  0  0  0
   -2.4646   -1.2463   -1.0632 H   0  0  0  0  0  0  0  0  0  0  0  0
   -1.8880    0.3239   -1.5973 H   0  0  0  0  0  0  0  0  0  0  0  0
    4.1420   -0.2541   -1.8790 H   0  0  0  0  0  0  0  0  0  0  0  0
    3.1152    1.1622   -1.7355 H   0  0  0  0  0  0  0  0  0  0  0  0
    3.6274    1.3317    0.6839 H   0  0  0  0  0  0  0  0  0  0  0  0
    4.5762   -0.1431    0.6023 H   0  0  0  0  0  0  0  0  0  0  0  0
   -6.9394    1.7715    0.8697 H   0  0  0  0  0  0  0  0  0  0  0  0
   -1.6957   -0.7089    1.2727 H   0  0  0  0  0  0  0  0  0  0  0  0
   -1.0901    0.8315    0.7055 H   0  0  0  0  0  0  0  0  0  0  0  0
    0.9905    1.0373   -0.4339 H   0  0  0  0  0  0  0  0  0  0  0  0
    6.1520    0.9606   -1.0057 H   0  0  0  0  0  0  0  0  0  0  0  0
    5.1429    2.4017   -0.9890 H   0  0  0  0  0  0  0  0  0  0  0  0
    7.5513    0.4976    1.0170 H   0  0  0  0  0  0  0  0  0  0  0  0
    7.3886    1.6013    2.3915 H   0  0  0  0  0  0  0  0  0  0  0  0
    6.1013    0.4645    2.0337 H   0  0  0  0  0  0  0  0  0  0  0  0
    6.6960    3.8828   -0.2802 H   0  0  0  0  0  0  0  0  0  0  0  0
    7.6740    3.5723    1.1554 H   0  0  0  0  0  0  0  0  0  0  0  0
    7.9708    2.6564   -0.3297 H   0  0  0  0  0  0  0  0  0  0  0  0
   -5.7246   -1.3316    2.2913 H   0  0  0  0  0  0  0  0  0  0  0  0
   -7.0100   -0.2411    2.2358 H   0  0  0  0  0  0  0  0  0  0  0  0
   -5.8991    3.2708   -1.1661 C   0  0  0  0  0  0  0  0  0  0  0  0
 49 13  1  0
 13  7  2  0
 13 12  1  0
  7  8  1  0
 12  6  2  0
  8  9  1  0
  8 21  2  0
 19  4  1  0
  6 21  1  0
  6 22  1  0
 20  5  1  0
  9 14  1  0
  4  5  2  0
  4  3  1  0
  5  1  1  0
  3  2  2  0
  1 14  1  0
  1 15  2  0
  2 15  1  0
  2 10  1  0
 10 11  1  0
 11 16  1  0
 16 23  1  0
 23 17  1  0
 23 18  1  0
  3 24  1  0
  7 25  1  0
 49 26  1  0
 49 27  1  0
 49 28  1  0
  9 29  1  0
  9 30  1  0
 10 31  1  0
 10 32  1  0
 11 33  1  0
 11 34  1  0
 12 35  1  0
 14 36  1  0
 14 37  1  0
 15 38  1  0
 16 39  1  0
 16 40  1  0
 17 41  1  0
 17 42  1  0
 17 43  1  0
 18 44  1  0
 18 45  1  0
 18 46  1  0
 22 47  1  0
 22 48  1  0
M  END
