
     RDKit          3D

 31 30  0  0  0  0  0  0  0  0999 V2000
   -0.7552    2.6324    0.0954 C   0  0  0  0  0  0  0  0  0  0  0  0
   -1.6701    1.4513   -0.2044 C   0  0  1  0  0  0  0  0  0  0  0  0
   -1.9791    1.3680   -1.6954 C   0  0  0  0  0  0  0  0  0  0  0  0
    1.3754   -0.0036    0.3543 C   0  0  0  0  0  0  0  0  0  0  0  0
    2.5611   -0.5640   -0.4274 C   0  0  2  0  0  0  0  0  0  0  0  0
   -2.0243   -1.0392    0.1120 C   0  0  0  0  0  0  0  0  0  0  0  0
   -1.0766    0.1374    0.3489 C   0  0  1  0  0  0  0  0  0  0  0  0
    0.1982   -0.1826   -0.2464 N   0  0  0  0  0  0  0  0  0  0  0  0
    1.5476    0.5171    1.4440 O   0  0  0  0  0  0  0  0  0  0  0  0
    2.7872   -2.0303   -0.0985 C   0  0  0  0  0  0  0  0  0  0  0  0
    3.7582    0.2297   -0.0537 N   0  0  0  0  0  0  0  0  0  0  0  0
   -3.1416   -1.0099    0.8448 N   0  0  0  0  0  0  0  0  0  0  0  0
   -0.5250    2.7086    1.1584 H   0  0  0  0  0  0  0  0  0  0  0  0
    0.1864    2.5612   -0.4522 H   0  0  0  0  0  0  0  0  0  0  0  0
   -1.2374    3.5621   -0.2090 H   0  0  0  0  0  0  0  0  0  0  0  0
   -2.6097    1.6190    0.3312 H   0  0  0  0  0  0  0  0  0  0  0  0
   -1.0804    1.1605   -2.2793 H   0  0  0  0  0  0  0  0  0  0  0  0
   -2.7184    0.6011   -1.9287 H   0  0  0  0  0  0  0  0  0  0  0  0
   -2.3793    2.3191   -2.0475 H   0  0  0  0  0  0  0  0  0  0  0  0
    2.4262   -0.4293   -1.5000 H   0  0  0  0  0  0  0  0  0  0  0  0
   -0.9266    0.2559    1.4246 H   0  0  0  0  0  0  0  0  0  0  0  0
    0.1754   -0.6638   -1.1337 H   0  0  0  0  0  0  0  0  0  0  0  0
    2.9657   -2.1750    0.9667 H   0  0  0  0  0  0  0  0  0  0  0  0
    1.9108   -2.6100   -0.3812 H   0  0  0  0  0  0  0  0  0  0  0  0
    3.6383   -2.4206   -0.6551 H   0  0  0  0  0  0  0  0  0  0  0  0
    3.8752    0.2780    0.9604 H   0  0  0  0  0  0  0  0  0  0  0  0
    4.6092   -0.1744   -0.4447 H   0  0  0  0  0  0  0  0  0  0  0  0
    3.7077    1.1904   -0.3940 H   0  0  0  0  0  0  0  0  0  0  0  0
   -3.8408   -1.7267    0.7363 H   0  0  0  0  0  0  0  0  0  0  0  0
   -3.3036   -0.3129    1.5517 H   0  0  0  0  0  0  0  0  0  0  0  0
   -1.7745   -1.9076   -0.7098 O   0  0  0  0  0  0  0  0  0  0  0  0
 12  6  1  0
  6 31  2  0
  6  7  1  0
  7  2  1  0
  7  8  1  0
  2  3  1  0
  2  1  1  0
  8  4  1  0
  9  4  2  0
  4  5  1  0
 10  5  1  0
  5 11  1  0
  1 13  1  0
  1 14  1  0
  1 15  1  0
  2 16  1  1
  3 17  1  0
  3 18  1  0
  3 19  1  0
  5 20  1  6
  7 21  1  1
  8 22  1  0
 10 23  1  0
 10 24  1  0
 10 25  1  0
 11 26  1  0
 11 27  1  0
 11 28  1  0
 12 29  1  0
 12 30  1  0
M  CHG  1  11   1
M  END
