
     RDKit          3D

 30 31  0  0  0  0  0  0  0  0999 V2000
    0.5419   -1.5324    0.3984 N   0  0  0  0  0  0  0  0  0  0  0  0
   -2.9264    0.3653   -0.0432 N   0  0  0  0  0  0  0  0  0  0  0  0
    0.5403   -0.2549   -0.0071 C   0  0  0  0  0  0  0  0  0  0  0  0
   -0.6066   -2.1519    0.6406 C   0  0  0  0  0  0  0  0  0  0  0  0
   -1.8409   -0.4047    0.1415 C   0  0  0  0  0  0  0  0  0  0  0  0
   -4.3075    0.0106    0.1588 C   0  0  0  0  0  0  0  0  0  0  0  0
   -1.2840    1.6429   -0.5074 C   0  0  0  0  0  0  0  0  0  0  0  0
    1.7113    0.3476   -0.2486 N   0  0  0  0  0  0  0  0  0  0  0  0
    3.7491   -0.5512   -1.3143 C   0  0  0  0  0  0  0  0  0  0  0  0
    2.9907   -0.3285   -0.0112 C   0  0  1  0  0  0  0  0  0  0  0  0
    3.8236    0.4269    1.0176 C   0  0  0  0  0  0  0  0  0  0  0  0
    1.7416    1.7088   -0.7378 C   0  0  0  0  0  0  0  0  0  0  0  0
   -0.7211    0.3872   -0.1554 C   0  0  0  0  0  0  0  0  0  0  0  0
   -1.8320   -1.6802    0.5407 N   0  0  0  0  0  0  0  0  0  0  0  0
   -2.5890    1.6048   -0.4322 N   0  0  0  0  0  0  0  0  0  0  0  0
   -0.5161   -3.1847    0.9627 H   0  0  0  0  0  0  0  0  0  0  0  0
   -4.8819    0.2025   -0.7453 H   0  0  0  0  0  0  0  0  0  0  0  0
   -4.3654   -1.0473    0.3967 H   0  0  0  0  0  0  0  0  0  0  0  0
   -4.7331    0.5830    0.9815 H   0  0  0  0  0  0  0  0  0  0  0  0
   -0.7993    2.5577   -0.8057 H   0  0  0  0  0  0  0  0  0  0  0  0
    4.0723    0.3857   -1.7717 H   0  0  0  0  0  0  0  0  0  0  0  0
    4.6451   -1.1414   -1.1204 H   0  0  0  0  0  0  0  0  0  0  0  0
    3.1386   -1.0924   -2.0374 H   0  0  0  0  0  0  0  0  0  0  0  0
    2.7409   -1.3010    0.4043 H   0  0  0  0  0  0  0  0  0  0  0  0
    4.1434    1.4062    0.6573 H   0  0  0  0  0  0  0  0  0  0  0  0
    3.2683    0.5688    1.9451 H   0  0  0  0  0  0  0  0  0  0  0  0
    4.7244   -0.1420    1.2490 H   0  0  0  0  0  0  0  0  0  0  0  0
    1.3734    2.4188    0.0051 H   0  0  0  0  0  0  0  0  0  0  0  0
    2.7632    1.9858   -0.9777 H   0  0  0  0  0  0  0  0  0  0  0  0
    1.1575    1.8174   -1.6520 H   0  0  0  0  0  0  0  0  0  0  0  0
 11 10  1  0
 10  9  1  0
 10  8  1  0
  1  4  2  0
  1  3  1  0
  4 14  1  0
 14  5  2  0
  8  3  1  0
  8 12  1  0
  3 13  2  0
  5 13  1  0
  5  2  1  0
 13  7  1  0
  2  6  1  0
  2 15  1  0
  7 15  2  0
  4 16  1  0
  6 17  1  0
  6 18  1  0
  6 19  1  0
  7 20  1  0
  9 21  1  0
  9 22  1  0
  9 23  1  0
 10 24  1  1
 11 25  1  0
 11 26  1  0
 11 27  1  0
 12 28  1  0
 12 29  1  0
 12 30  1  0
M  END
