
     RDKit          3D

 33 35  0  0  0  0  0  0  0  0999 V2000
   -4.6185    1.1178    0.0206 O   0  0  0  0  0  0  0  0  0  0  0  0
   -3.4411    0.4799    0.0272 C   0  0  0  0  0  0  0  0  0  0  0  0
   -3.4767   -0.9247   -0.0109 C   0  0  0  0  0  0  0  0  0  0  0  0
   -4.6231   -1.6262   -0.0411 O   0  0  0  0  0  0  0  0  0  0  0  0
   -2.2632   -1.5729   -0.0381 C   0  0  0  0  0  0  0  0  0  0  0  0
   -1.0631   -0.8527   -0.0113 C   0  0  0  0  0  0  0  0  0  0  0  0
    0.2144   -1.5892   -0.1186 C   0  0  0  0  0  0  0  0  0  0  0  0
    0.4944   -2.6495    0.7411 C   0  0  0  0  0  0  0  0  0  0  0  0
    1.6778   -3.3667    0.6369 C   0  0  0  0  0  0  0  0  0  0  0  0
    2.5793   -3.0107   -0.3460 C   0  0  0  0  0  0  0  0  0  0  0  0
    3.7271   -3.6986   -0.4578 F   0  0  0  0  0  0  0  0  0  0  0  0
    2.3347   -1.9707   -1.2230 C   0  0  0  0  0  0  0  0  0  0  0  0
    1.1480   -1.2659   -1.1027 C   0  0  0  0  0  0  0  0  0  0  0  0
   -1.1456    0.5358    0.0721 C   0  0  0  0  0  0  0  0  0  0  0  0
    0.0350    1.4220    0.1699 C   0  0  0  0  0  0  0  0  0  0  0  0
    0.0925    2.5864   -0.5944 C   0  0  0  0  0  0  0  0  0  0  0  0
    1.1792    3.4437   -0.5152 C   0  0  0  0  0  0  0  0  0  0  0  0
    2.2058    3.1288    0.3536 C   0  0  0  0  0  0  0  0  0  0  0  0
    3.2624    3.9530    0.4386 F   0  0  0  0  0  0  0  0  0  0  0  0
    2.1760    1.9957    1.1437 C   0  0  0  0  0  0  0  0  0  0  0  0
    1.0855    1.1461    1.0441 C   0  0  0  0  0  0  0  0  0  0  0  0
   -2.3292    1.1608    0.0726 N   0  0  0  0  0  0  0  0  0  0  0  0
   -5.3875   -1.0384   -0.0356 H   0  0  0  0  0  0  0  0  0  0  0  0
   -2.2436   -2.6539   -0.1094 H   0  0  0  0  0  0  0  0  0  0  0  0
   -0.2126   -2.9170    1.5164 H   0  0  0  0  0  0  0  0  0  0  0  0
    1.8908   -4.1845    1.3127 H   0  0  0  0  0  0  0  0  0  0  0  0
    3.0546   -1.7189   -1.9909 H   0  0  0  0  0  0  0  0  0  0  0  0
    0.9497   -0.4566   -1.7934 H   0  0  0  0  0  0  0  0  0  0  0  0
   -0.7176    2.8242   -1.2713 H   0  0  0  0  0  0  0  0  0  0  0  0
    1.2243    4.3396   -1.1202 H   0  0  0  0  0  0  0  0  0  0  0  0
    2.9845    1.7828    1.8307 H   0  0  0  0  0  0  0  0  0  0  0  0
    1.0525    0.2656    1.6718 H   0  0  0  0  0  0  0  0  0  0  0  0
   -4.4687    2.0720    0.0508 H   0  0  0  0  0  0  0  0  0  0  0  0
 19 18  1  0
 18 20  2  0
 18 17  1  0
 20 21  1  0
 11 10  1  0
 17 16  2  0
 21 15  2  0
 10  9  1  0
 10 12  2  0
  9  8  2  0
 12 13  1  0
 16 15  1  0
 15 14  1  0
  8  7  1  0
 13  7  2  0
  7  6  1  0
 14  6  2  0
 14 22  1  0
  6  5  1  0
 22  2  2  0
  5  3  2  0
  2  3  1  0
  2  1  1  0
  3  4  1  0
  4 23  1  0
  5 24  1  0
  8 25  1  0
  9 26  1  0
 12 27  1  0
 13 28  1  0
 16 29  1  0
 17 30  1  0
 20 31  1  0
 21 32  1  0
  1 33  1  0
M  END
