
     RDKit          3D

 45 48  0  0  0  0  0  0  0  0999 V2000
   -3.8069   -2.3028    0.2687 N   0  0  0  0  0  0  0  0  0  0  0  0
   -3.4433   -3.5542    0.3733 C   0  0  0  0  0  0  0  0  0  0  0  0
   -2.0369   -3.7113    0.3494 C   0  0  0  0  0  0  0  0  0  0  0  0
   -1.5336   -2.4176    0.2189 C   0  0  0  0  0  0  0  0  0  0  0  0
   -2.6441   -1.6250    0.1752 N   0  0  0  0  0  0  0  0  0  0  0  0
   -0.3058   -1.9190    0.1433 N   0  0  0  0  0  0  0  0  0  0  0  0
   -0.2535   -0.6056    0.0265 C   0  0  0  0  0  0  0  0  0  0  0  0
   -1.3145    0.2362   -0.0261 N   0  0  0  0  0  0  0  0  0  0  0  0
   -2.5108   -0.2690    0.0492 C   0  0  0  0  0  0  0  0  0  0  0  0
   -3.6474    0.4249    0.0171 N   0  0  0  0  0  0  0  0  0  0  0  0
   -3.8610    1.8074   -0.0861 C   0  0  0  0  0  0  0  0  0  0  0  0
   -2.8526    2.7539   -0.2565 C   0  0  0  0  0  0  0  0  0  0  0  0
   -3.1914    4.0982   -0.3483 C   0  0  0  0  0  0  0  0  0  0  0  0
   -4.5114    4.5158   -0.2744 C   0  0  0  0  0  0  0  0  0  0  0  0
   -5.5118    3.5666   -0.1065 C   0  0  0  0  0  0  0  0  0  0  0  0
   -5.1917    2.2238   -0.0124 C   0  0  0  0  0  0  0  0  0  0  0  0
    0.9298    0.0344   -0.0541 N   0  0  0  0  0  0  0  0  0  0  0  0
    2.2430   -0.4375   -0.0116 C   0  0  0  0  0  0  0  0  0  0  0  0
    3.2275    0.5512   -0.1182 C   0  0  0  0  0  0  0  0  0  0  0  0
    4.5743    0.2109   -0.0796 C   0  0  0  0  0  0  0  0  0  0  0  0
    4.9369   -1.1319    0.0673 C   0  0  0  0  0  0  0  0  0  0  0  0
    3.9548   -2.0967    0.1675 C   0  0  0  0  0  0  0  0  0  0  0  0
    2.6040   -1.7753    0.1293 C   0  0  0  0  0  0  0  0  0  0  0  0
   -1.2843   -4.8927    0.4355 C   0  0  0  0  0  0  0  0  0  0  0  0
   -0.6649   -5.8645    0.5032 N   0  0  0  0  0  0  0  0  0  0  0  0
    5.6171    1.1352   -0.1729 N   0  0  0  0  0  0  0  0  0  0  0  0
    5.5706    2.4759   -0.3874 C   0  0  0  0  0  0  0  0  0  0  0  0
    4.5366    3.1045   -0.5336 O   0  0  0  0  0  0  0  0  0  0  0  0
    6.9191    3.1481   -0.4274 C   0  0  0  0  0  0  0  0  0  0  0  0
   -4.1826   -4.3346    0.4650 H   0  0  0  0  0  0  0  0  0  0  0  0
   -4.4856   -0.1378    0.0987 H   0  0  0  0  0  0  0  0  0  0  0  0
   -1.8184    2.4579   -0.3167 H   0  0  0  0  0  0  0  0  0  0  0  0
   -2.4007    4.8252   -0.4799 H   0  0  0  0  0  0  0  0  0  0  0  0
   -4.7583    5.5665   -0.3464 H   0  0  0  0  0  0  0  0  0  0  0  0
   -6.5492    3.8685   -0.0470 H   0  0  0  0  0  0  0  0  0  0  0  0
   -5.9801    1.4918    0.1176 H   0  0  0  0  0  0  0  0  0  0  0  0
    0.8355    1.0359   -0.1429 H   0  0  0  0  0  0  0  0  0  0  0  0
    2.9276    1.5816   -0.2297 H   0  0  0  0  0  0  0  0  0  0  0  0
    5.9828   -1.4125    0.1025 H   0  0  0  0  0  0  0  0  0  0  0  0
    4.2422   -3.1339    0.2799 H   0  0  0  0  0  0  0  0  0  0  0  0
    1.8605   -2.5493    0.2079 H   0  0  0  0  0  0  0  0  0  0  0  0
    6.5374    0.7358   -0.0747 H   0  0  0  0  0  0  0  0  0  0  0  0
    7.7601    2.4618   -0.3556 H   0  0  0  0  0  0  0  0  0  0  0  0
    7.0100    3.7124   -1.3550 H   0  0  0  0  0  0  0  0  0  0  0  0
    6.9863    3.8611    0.3947 H   0  0  0  0  0  0  0  0  0  0  0  0
  1  2  2  0
  1  5  1  0
  2  3  1  0
  2 30  1  0
  3 24  1  0
  3  4  2  0
  4  6  1  0
  4  5  1  0
  5  9  1  0
  6  7  2  0
  7 17  1  0
  7  8  1  0
  8  9  2  0
  9 10  1  0
 10 11  1  0
 10 31  1  0
 11 16  1  0
 11 12  2  0
 12 13  1  0
 12 32  1  0
 13 14  2  0
 13 33  1  0
 14 15  1  0
 14 34  1  0
 15 16  2  0
 15 35  1  0
 16 36  1  0
 17 18  1  0
 17 37  1  0
 18 19  2  0
 18 23  1  0
 19 20  1  0
 19 38  1  0
 20 26  1  0
 20 21  2  0
 21 22  1  0
 21 39  1  0
 22 23  2  0
 22 40  1  0
 23 41  1  0
 24 25  3  0
 26 27  1  0
 26 42  1  0
 27 28  2  0
 27 29  1  0
 29 43  1  0
 29 44  1  0
 29 45  1  0
M  END
