
     RDKit          3D

 50 49  0  0  0  0  0  0  0  0999 V2000
   -5.6029    2.0594   -0.4720 P   0  0  1  0  0  0  0  0  0  0  0  0
   -4.3811    2.7422   -1.2460 O   0  0  0  0  0  0  0  0  0  0  0  0
   -6.5979    1.5846   -1.4513 O   0  0  0  0  0  0  0  0  0  0  0  0
   -4.9824    0.9674    0.5084 O   0  0  0  0  0  0  0  0  0  0  0  0
   -4.3941   -0.2175   -0.0461 C   0  0  0  0  0  0  0  0  0  0  0  0
   -3.7888   -1.0408    1.0901 C   0  0  1  0  0  0  0  0  0  0  0  0
   -2.7270   -0.2275    1.8339 C   0  0  0  0  0  0  0  0  0  0  0  0
   -4.8780   -1.4638    2.0799 C   0  0  0  0  0  0  0  0  0  0  0  0
   -3.1593   -2.3379    0.5049 C   0  0  1  0  0  0  0  0  0  0  0  0
   -4.0974   -3.1327   -0.1675 O   0  0  0  0  0  0  0  0  0  0  0  0
   -1.9866   -2.0657   -0.4395 C   0  0  0  0  0  0  0  0  0  0  0  0
   -2.1956   -1.9215   -1.6395 O   0  0  0  0  0  0  0  0  0  0  0  0
   -0.7775   -2.0049    0.1215 N   0  0  0  0  0  0  0  0  0  0  0  0
    0.4457   -1.7141   -0.5973 C   0  0  0  0  0  0  0  0  0  0  0  0
    1.3313   -0.7986    0.2334 C   0  0  0  0  0  0  0  0  0  0  0  0
    2.6555   -0.5106   -0.4422 C   0  0  0  0  0  0  0  0  0  0  0  0
    3.1281   -1.2416   -1.3001 O   0  0  0  0  0  0  0  0  0  0  0  0
    3.2731    0.6036   -0.0115 N   0  0  0  0  0  0  0  0  0  0  0  0
    4.5852    1.0038   -0.4578 C   0  0  0  0  0  0  0  0  0  0  0  0
    5.6834    0.2715    0.3093 C   0  0  0  0  0  0  0  0  0  0  0  0
    7.2939    0.8636   -0.2794 S   0  0  0  0  0  0  0  0  0  0  0  0
    8.4060   -0.1044    0.6985 C   0  0  0  0  0  0  0  0  0  0  0  0
    8.0277   -0.8916    1.5274 O   0  0  0  0  0  0  0  0  0  0  0  0
    9.8463    0.1400    0.3522 C   0  0  0  0  0  0  0  0  0  0  0  0
   -6.0936    3.0739    0.6552 O   0  0  0  0  0  0  0  0  0  0  0  0
   -3.7042    3.1526   -0.6916 H   0  0  0  0  0  0  0  0  0  0  0  0
   -5.1651   -0.7908   -0.5675 H   0  0  0  0  0  0  0  0  0  0  0  0
   -3.6250    0.0620   -0.7707 H   0  0  0  0  0  0  0  0  0  0  0  0
   -3.1909    0.5736    2.4082 H   0  0  0  0  0  0  0  0  0  0  0  0
   -2.1835   -0.8549    2.5443 H   0  0  0  0  0  0  0  0  0  0  0  0
   -1.9972    0.2284    1.1635 H   0  0  0  0  0  0  0  0  0  0  0  0
   -5.3456   -0.5955    2.5431 H   0  0  0  0  0  0  0  0  0  0  0  0
   -5.6584   -2.0531    1.5986 H   0  0  0  0  0  0  0  0  0  0  0  0
   -4.4477   -2.0698    2.8803 H   0  0  0  0  0  0  0  0  0  0  0  0
   -2.8009   -2.9167    1.3644 H   0  0  0  0  0  0  0  0  0  0  0  0
   -4.0639   -2.8976   -1.1039 H   0  0  0  0  0  0  0  0  0  0  0  0
   -0.6956   -2.2203    1.1032 H   0  0  0  0  0  0  0  0  0  0  0  0
    0.9695   -2.6419   -0.8331 H   0  0  0  0  0  0  0  0  0  0  0  0
    0.1845   -1.2377   -1.5403 H   0  0  0  0  0  0  0  0  0  0  0  0
    0.8076    0.1344    0.4549 H   0  0  0  0  0  0  0  0  0  0  0  0
    1.5499   -1.2659    1.2000 H   0  0  0  0  0  0  0  0  0  0  0  0
    2.8429    1.1457    0.7202 H   0  0  0  0  0  0  0  0  0  0  0  0
    4.6775    0.8158   -1.5276 H   0  0  0  0  0  0  0  0  0  0  0  0
    4.6718    2.0796   -0.3082 H   0  0  0  0  0  0  0  0  0  0  0  0
    5.5976    0.4687    1.3775 H   0  0  0  0  0  0  0  0  0  0  0  0
    5.6147   -0.8026    0.1426 H   0  0  0  0  0  0  0  0  0  0  0  0
   10.1271   -0.5230   -0.4687 H   0  0  0  0  0  0  0  0  0  0  0  0
   10.0254    1.1634    0.0271 H   0  0  0  0  0  0  0  0  0  0  0  0
   10.4818   -0.0876    1.2058 H   0  0  0  0  0  0  0  0  0  0  0  0
   -6.6244    3.8075    0.3168 H   0  0  0  0  0  0  0  0  0  0  0  0
 24 22  1  0
 22 23  2  0
 22 21  1  0
 21 20  1  0
 20 19  1  0
 17 16  2  0
 19 18  1  0
 16 18  1  0
 16 15  1  0
 15 14  1  0
 14 13  1  0
 13 11  1  0
 10  9  1  0
 11  9  1  0
 11 12  2  0
  9  6  1  0
  6  8  1  1
  6  7  1  0
  6  5  1  0
  5  4  1  0
  1  4  1  1
  3  1  2  0
  1  2  1  0
  1 25  1  0
  2 26  1  0
  5 27  1  0
  5 28  1  0
  7 29  1  0
  7 30  1  0
  7 31  1  0
  8 32  1  0
  8 33  1  0
  8 34  1  0
  9 35  1  1
 10 36  1  0
 13 37  1  0
 14 38  1  0
 14 39  1  0
 15 40  1  0
 15 41  1  0
 18 42  1  0
 19 43  1  0
 19 44  1  0
 20 45  1  0
 20 46  1  0
 24 47  1  0
 24 48  1  0
 24 49  1  0
 25 50  1  0
M  END
