
     RDKit          3D

 49 52  0  0  0  0  0  0  0  0999 V2000
   -2.4841    0.8419    0.8038 C   0  0  0  0  0  0  0  0  0  0  0  0
   -4.3051    2.2664   -0.2107 C   0  0  0  0  0  0  0  0  0  0  0  0
   -6.8634   -0.2652   -1.3013 C   0  0  0  0  0  0  0  0  0  0  0  0
   -6.2325   -1.4549   -0.9162 C   0  0  0  0  0  0  0  0  0  0  0  0
   -4.9697   -1.4145   -0.3250 C   0  0  0  0  0  0  0  0  0  0  0  0
   -4.3369   -0.2029   -0.0903 C   0  0  0  0  0  0  0  0  0  0  0  0
   -4.9753    0.9960   -0.4634 C   0  0  0  0  0  0  0  0  0  0  0  0
   -8.0400   -2.7863   -1.6878 C   0  0  0  0  0  0  0  0  0  0  0  0
   -0.3953   -0.3726    1.5813 C   0  0  0  0  0  0  0  0  0  0  0  0
    4.8094   -0.5964   -0.7686 C   0  0  0  0  0  0  0  0  0  0  0  0
    3.8531   -1.5966   -0.7884 C   0  0  0  0  0  0  0  0  0  0  0  0
    2.9308   -1.6607    0.2454 C   0  0  0  0  0  0  0  0  0  0  0  0
    6.8750   -1.1274   -1.7254 C   0  0  1  0  0  0  0  0  0  0  0  0
   -3.6200    2.6093    2.1289 C   0  0  0  0  0  0  0  0  0  0  0  0
    7.5521   -0.9081   -2.8407 F   0  0  0  0  0  0  0  0  0  0  0  0
    6.7366   -2.4454   -1.5692 F   0  0  0  0  0  0  0  0  0  0  0  0
    7.6071   -0.6929   -0.6975 F   0  0  0  0  0  0  0  0  0  0  0  0
    5.7013   -0.4926   -1.8306 O   0  0  0  0  0  0  0  0  0  0  0  0
    4.8613    0.3359    0.2535 C   0  0  0  0  0  0  0  0  0  0  0  0
    3.9318    0.2572    1.2793 C   0  0  0  0  0  0  0  0  0  0  0  0
    2.9627   -0.7405    1.2874 C   0  0  0  0  0  0  0  0  0  0  0  0
    0.7816    0.0306    2.0644 N   0  0  0  0  0  0  0  0  0  0  0  0
    0.8790    1.3590    2.1496 N   0  0  0  0  0  0  0  0  0  0  0  0
   -0.2734    1.8210    1.7181 C   0  0  0  0  0  0  0  0  0  0  0  0
   -1.1386    0.7714    1.3371 C   0  0  0  0  0  0  0  0  0  0  0  0
   -3.1209    2.2021    0.7250 C   0  0  1  0  0  0  0  0  0  0  0  0
   -4.6965    3.3309   -0.6499 O   0  0  0  0  0  0  0  0  0  0  0  0
   -6.2240    0.9381   -1.0764 C   0  0  0  0  0  0  0  0  0  0  0  0
   -3.0651   -0.2489    0.4648 N   0  0  0  0  0  0  0  0  0  0  0  0
   -6.7640   -2.6697   -1.0817 O   0  0  0  0  0  0  0  0  0  0  0  0
   -7.8378   -0.2671   -1.7693 H   0  0  0  0  0  0  0  0  0  0  0  0
   -4.4720   -2.3361   -0.0507 H   0  0  0  0  0  0  0  0  0  0  0  0
   -8.8105   -2.2672   -1.1137 H   0  0  0  0  0  0  0  0  0  0  0  0
   -8.0385   -2.4033   -2.7106 H   0  0  0  0  0  0  0  0  0  0  0  0
   -8.2719   -3.8477   -1.7093 H   0  0  0  0  0  0  0  0  0  0  0  0
   -0.6379   -1.4139    1.4462 H   0  0  0  0  0  0  0  0  0  0  0  0
    3.8160   -2.3092   -1.6016 H   0  0  0  0  0  0  0  0  0  0  0  0
    2.1826   -2.4436    0.2337 H   0  0  0  0  0  0  0  0  0  0  0  0
   -2.8029    2.5964    2.8481 H   0  0  0  0  0  0  0  0  0  0  0  0
   -4.0301    3.6173    2.0988 H   0  0  0  0  0  0  0  0  0  0  0  0
   -4.3953    1.9305    2.4849 H   0  0  0  0  0  0  0  0  0  0  0  0
    5.6034    1.1229    0.2474 H   0  0  0  0  0  0  0  0  0  0  0  0
    3.9664    0.9845    2.0800 H   0  0  0  0  0  0  0  0  0  0  0  0
    1.5739   -1.8111    2.5344 H   0  0  0  0  0  0  0  0  0  0  0  0
    2.3433   -0.4445    3.3288 H   0  0  0  0  0  0  0  0  0  0  0  0
   -0.4546    2.8854    1.6943 H   0  0  0  0  0  0  0  0  0  0  0  0
   -2.3801    2.9364    0.3992 H   0  0  0  0  0  0  0  0  0  0  0  0
   -6.7125    1.8578   -1.3717 H   0  0  0  0  0  0  0  0  0  0  0  0
    1.9319   -0.7941    2.3828 C   0  0  0  0  0  0  0  0  0  0  0  0
 13 15  1  6
 17 13  1  0
 13 16  1  0
 13 18  1  0
 18 10  1  0
 19 10  2  0
 19 20  1  0
 10 11  1  0
 20 21  2  0
 11 12  2  0
 21 12  1  0
 21 49  1  0
 49 22  1  0
 22  9  1  0
 22 23  1  0
  9 25  2  0
 23 24  2  0
 14 26  1  0
 25 24  1  0
 25  1  1  0
 26  1  1  0
 26  2  1  0
  1 29  2  0
 27  2  2  0
  2  7  1  0
 29  6  1  0
  6  7  2  0
  6  5  1  0
  7 28  1  0
  5  4  2  0
 28  3  2  0
  4  3  1  0
  4 30  1  0
  8 30  1  0
  3 31  1  0
  5 32  1  0
  8 33  1  0
  8 34  1  0
  8 35  1  0
  9 36  1  0
 11 37  1  0
 12 38  1  0
 14 39  1  0
 14 40  1  0
 14 41  1  0
 19 42  1  0
 20 43  1  0
 49 44  1  0
 49 45  1  0
 24 46  1  0
 26 47  1  6
 28 48  1  0
M  END
