
     RDKit          3D

 42 43  0  0  0  0  0  0  0  0999 V2000
   -5.4281    0.1858   -0.3730 C   0  0  0  0  0  0  0  0  0  0  0  0
   -4.9216    1.0407    0.7843 C   0  0  0  0  0  0  0  0  0  0  0  0
   -4.4403    0.1965   -1.5347 C   0  0  0  0  0  0  0  0  0  0  0  0
   -3.5179    0.6262    1.2129 C   0  0  0  0  0  0  0  0  0  0  0  0
   -3.0461   -0.2265   -1.0831 C   0  0  0  0  0  0  0  0  0  0  0  0
   -0.1513    0.6551   -0.3862 C   0  0  0  0  0  0  0  0  0  0  0  0
    2.2460    0.4066   -1.1118 C   0  0  0  0  0  0  0  0  0  0  0  0
    1.8098    0.6094    1.3040 C   0  0  0  0  0  0  0  0  0  0  0  0
    3.4923    0.8443   -0.3550 C   0  0  2  0  0  0  0  0  0  0  0  0
    2.9173    1.5563    0.8734 C   0  0  1  0  0  0  0  0  0  0  0  0
   -2.5380    0.6704    0.0450 C   0  0  2  0  0  0  0  0  0  0  0  0
    1.2079    0.0639   -0.0172 C   0  0  1  0  0  0  0  0  0  0  0  0
   -1.2175    0.2564    0.4963 N   0  0  0  0  0  0  0  0  0  0  0  0
    4.2961    1.6630   -1.1658 O   0  0  0  0  0  0  0  0  0  0  0  0
    2.3532    2.7969    0.5194 O   0  0  0  0  0  0  0  0  0  0  0  0
    1.0855   -1.7445    0.0692 S   0  0  1  0  0  0  0  0  0  0  0  0
   -5.5715   -0.8440   -0.0282 H   0  0  0  0  0  0  0  0  0  0  0  0
   -6.4079    0.5404   -0.7026 H   0  0  0  0  0  0  0  0  0  0  0  0
   -4.9105    2.0921    0.4774 H   0  0  0  0  0  0  0  0  0  0  0  0
   -5.6054    0.9748    1.6337 H   0  0  0  0  0  0  0  0  0  0  0  0
   -4.7892   -0.4579   -2.3372 H   0  0  0  0  0  0  0  0  0  0  0  0
   -4.3921    1.2059   -1.9587 H   0  0  0  0  0  0  0  0  0  0  0  0
   -3.1653    1.2775    2.0193 H   0  0  0  0  0  0  0  0  0  0  0  0
   -3.5372   -0.3927    1.6162 H   0  0  0  0  0  0  0  0  0  0  0  0
   -3.0656   -1.2585   -0.7182 H   0  0  0  0  0  0  0  0  0  0  0  0
   -2.3601   -0.2108   -1.9340 H   0  0  0  0  0  0  0  0  0  0  0  0
   -0.0025    1.7454   -0.4326 H   0  0  0  0  0  0  0  0  0  0  0  0
   -0.3912    0.3368   -1.4015 H   0  0  0  0  0  0  0  0  0  0  0  0
    1.8565    1.2475   -1.6903 H   0  0  0  0  0  0  0  0  0  0  0  0
    2.4336   -0.3986   -1.8224 H   0  0  0  0  0  0  0  0  0  0  0  0
    2.2627   -0.1738    1.9144 H   0  0  0  0  0  0  0  0  0  0  0  0
    1.0638    1.0990    1.9307 H   0  0  0  0  0  0  0  0  0  0  0  0
    4.0407   -0.0409   -0.0110 H   0  0  0  0  0  0  0  0  0  0  0  0
    3.6695    1.6750    1.6647 H   0  0  0  0  0  0  0  0  0  0  0  0
   -2.5194    1.7101   -0.3317 H   0  0  0  0  0  0  0  0  0  0  0  0
   -1.0513    0.6425    1.4182 H   0  0  0  0  0  0  0  0  0  0  0  0
    5.1701    1.7260   -0.7680 H   0  0  0  0  0  0  0  0  0  0  0  0
    2.9909    3.2599   -0.0365 H   0  0  0  0  0  0  0  0  0  0  0  0
    0.9910   -2.2786    2.1525 H   0  0  0  0  0  0  0  0  0  0  0  0
    0.2065   -2.2329   -0.9720 O   0  0  0  0  0  0  0  0  0  0  0  0
    2.4329   -2.2915    0.1614 O   0  0  0  0  0  0  0  0  0  0  0  0
    0.3498   -2.0517    1.4604 O   0  0  0  0  0  0  0  0  0  0  0  0
  1  2  1  0
  1  3  1  0
  2  4  1  0
  4 11  1  0
  3  5  1  0
  5 11  1  0
 11 13  1  0
 13  6  1  0
 40 16  2  0
  7 12  1  0
  7  9  1  0
 14  9  1  0
 12  6  1  6
 12 16  1  0
 12  8  1  0
  9 10  1  0
 16 41  2  0
 16 42  1  1
 15 10  1  0
 10  8  1  0
  1 17  1  0
  1 18  1  0
  2 19  1  0
  2 20  1  0
  3 21  1  0
  3 22  1  0
  4 23  1  0
  4 24  1  0
  5 25  1  0
  5 26  1  0
  6 27  1  0
  6 28  1  0
  7 29  1  0
  7 30  1  0
  8 31  1  0
  8 32  1  0
  9 33  1  1
 10 34  1  1
 11 35  1  6
 13 36  1  0
 14 37  1  0
 15 38  1  0
 42 39  1  0
M  END
