
     RDKit          3D

 65 69  0  0  0  0  0  0  0  0999 V2000
   -3.7714   -3.2298    0.6624 C   0  0  0  0  0  0  0  0  0  0  0  0
   -4.8513   -2.3722    1.3126 C   0  0  1  0  0  0  0  0  0  0  0  0
   -4.1426   -1.2103    2.0017 C   0  0  0  0  0  0  0  0  0  0  0  0
   -3.2156   -0.4439    1.0958 C   0  0  0  0  0  0  0  0  0  0  0  0
   -2.6257   -1.0445    0.0198 C   0  0  0  0  0  0  0  0  0  0  0  0
   -2.8489   -2.4531   -0.2432 C   0  0  0  0  0  0  0  0  0  0  0  0
   -2.1822    1.8522    1.0988 C   0  0  0  0  0  0  0  0  0  0  0  0
   -2.2274    1.0505   -1.1723 N   0  0  0  0  0  0  0  0  0  0  0  0
   -1.7651   -0.3269   -0.9808 C   0  0  1  0  0  0  0  0  0  0  0  0
   -1.7541    2.7863    2.0433 C   0  0  0  0  0  0  0  0  0  0  0  0
   -0.9168    3.0209   -0.5851 C   0  0  0  0  0  0  0  0  0  0  0  0
   -0.2837   -0.3224   -0.6766 C   0  0  0  0  0  0  0  0  0  0  0  0
   -3.2676    1.2934   -2.0209 C   0  0  0  0  0  0  0  0  0  0  0  0
   -3.7907    2.7068   -2.0655 C   0  0  0  0  0  0  0  0  0  0  0  0
    1.9520    0.1673   -1.4255 C   0  0  0  0  0  0  0  0  0  0  0  0
    1.6089   -0.6551    0.7919 C   0  0  0  0  0  0  0  0  0  0  0  0
    0.2415   -0.7059    0.5441 C   0  0  0  0  0  0  0  0  0  0  0  0
    5.8476   -0.0565    1.1485 C   0  0  0  0  0  0  0  0  0  0  0  0
    8.5676    0.5453    1.0057 C   0  0  0  0  0  0  0  0  0  0  0  0
    7.6207    1.5489    0.8313 C   0  0  0  0  0  0  0  0  0  0  0  0
    6.2693    1.2493    0.9041 C   0  0  0  0  0  0  0  0  0  0  0  0
   -5.8398   -1.8587    0.2630 C   0  0  0  0  0  0  0  0  0  0  0  0
   -5.6105   -3.1889    2.3540 C   0  0  0  0  0  0  0  0  0  0  0  0
    3.0279    0.7141   -2.6656 Cl  0  0  0  0  0  0  0  0  0  0  0  0
    0.5968    0.1094   -1.6673 C   0  0  0  0  0  0  0  0  0  0  0  0
    2.4876   -0.2102   -0.1877 C   0  0  0  0  0  0  0  0  0  0  0  0
    4.3840   -0.3689    1.2307 C   0  0  0  0  0  0  0  0  0  0  0  0
    8.1551   -0.7565    1.2500 C   0  0  0  0  0  0  0  0  0  0  0  0
    6.7991   -1.0552    1.3165 C   0  0  0  0  0  0  0  0  0  0  0  0
   -2.2761   -3.0233   -1.1661 O   0  0  0  0  0  0  0  0  0  0  0  0
   -3.7380    0.4084   -2.7157 O   0  0  0  0  0  0  0  0  0  0  0  0
   -1.7795    1.9947   -0.2263 C   0  0  0  0  0  0  0  0  0  0  0  0
   -0.4979    3.9497    0.3520 C   0  0  0  0  0  0  0  0  0  0  0  0
   -0.9276    3.8303    1.6687 C   0  0  0  0  0  0  0  0  0  0  0  0
   -3.0457    0.8379    1.5139 N   0  0  0  0  0  0  0  0  0  0  0  0
   -3.1496   -3.6856    1.4439 H   0  0  0  0  0  0  0  0  0  0  0  0
   -4.2070   -4.0551    0.0930 H   0  0  0  0  0  0  0  0  0  0  0  0
   -4.8817   -0.5259    2.4296 H   0  0  0  0  0  0  0  0  0  0  0  0
   -3.5540   -1.5890    2.8460 H   0  0  0  0  0  0  0  0  0  0  0  0
   -1.8930   -0.8330   -1.9382 H   0  0  0  0  0  0  0  0  0  0  0  0
   -2.0747    2.6909    3.0738 H   0  0  0  0  0  0  0  0  0  0  0  0
   -0.5895    3.0895   -1.6146 H   0  0  0  0  0  0  0  0  0  0  0  0
   -3.0423    3.3893   -2.4684 H   0  0  0  0  0  0  0  0  0  0  0  0
   -4.6687    2.7412   -2.7056 H   0  0  0  0  0  0  0  0  0  0  0  0
   -4.0609    3.0738   -1.0754 H   0  0  0  0  0  0  0  0  0  0  0  0
    1.9736   -0.9728    1.7591 H   0  0  0  0  0  0  0  0  0  0  0  0
   -0.4104   -1.0619    1.3312 H   0  0  0  0  0  0  0  0  0  0  0  0
    9.6229    0.7795    0.9523 H   0  0  0  0  0  0  0  0  0  0  0  0
    7.9377    2.5663    0.6418 H   0  0  0  0  0  0  0  0  0  0  0  0
    5.5366    2.0371    0.7766 H   0  0  0  0  0  0  0  0  0  0  0  0
   -6.3382   -2.6946   -0.2311 H   0  0  0  0  0  0  0  0  0  0  0  0
   -6.6092   -1.2387    0.7280 H   0  0  0  0  0  0  0  0  0  0  0  0
   -5.3560   -1.2575   -0.5084 H   0  0  0  0  0  0  0  0  0  0  0  0
   -4.9427   -3.5730    3.1277 H   0  0  0  0  0  0  0  0  0  0  0  0
   -6.3762   -2.5835    2.8433 H   0  0  0  0  0  0  0  0  0  0  0  0
   -6.1101   -4.0412    1.8889 H   0  0  0  0  0  0  0  0  0  0  0  0
    0.2182    0.4149   -2.6353 H   0  0  0  0  0  0  0  0  0  0  0  0
    3.8999    0.2641    1.9823 H   0  0  0  0  0  0  0  0  0  0  0  0
    4.2283   -1.4121    1.5231 H   0  0  0  0  0  0  0  0  0  0  0  0
    8.8869   -1.5420    1.3860 H   0  0  0  0  0  0  0  0  0  0  0  0
    6.4819   -2.0740    1.5042 H   0  0  0  0  0  0  0  0  0  0  0  0
    0.1606    4.7570    0.0614 H   0  0  0  0  0  0  0  0  0  0  0  0
   -0.6087    4.5478    2.4130 H   0  0  0  0  0  0  0  0  0  0  0  0
   -3.5175    1.0508    2.3801 H   0  0  0  0  0  0  0  0  0  0  0  0
    3.8172   -0.1175   -0.0495 O   0  0  0  0  0  0  0  0  0  0  0  0
  1  2  1  0
  1  6  1  0
  2  3  1  0
  2 22  1  6
  2 23  1  0
  3  4  1  0
  4  5  2  0
  4 35  1  0
  5  6  1  0
  5  9  1  0
  6 30  2  0
  7 10  2  0
  7 32  1  0
  7 35  1  0
  8  9  1  0
  8 13  1  0
  8 32  1  0
  9 12  1  0
 10 34  1  0
 11 32  2  0
 11 33  1  0
 12 17  2  0
 12 25  1  0
 13 14  1  0
 13 31  2  0
 15 24  1  0
 15 25  2  0
 15 26  1  0
 16 17  1  0
 16 26  2  0
 65 26  1  0
 65 27  1  0
 18 21  2  0
 18 27  1  0
 18 29  1  0
 19 20  2  0
 19 28  1  0
 20 21  1  0
 28 29  2  0
 33 34  2  0
  1 36  1  0
  1 37  1  0
  3 38  1  0
  3 39  1  0
  9 40  1  6
 10 41  1  0
 11 42  1  0
 14 43  1  0
 14 44  1  0
 14 45  1  0
 16 46  1  0
 17 47  1  0
 19 48  1  0
 20 49  1  0
 21 50  1  0
 22 51  1  0
 22 52  1  0
 22 53  1  0
 23 54  1  0
 23 55  1  0
 23 56  1  0
 25 57  1  0
 27 58  1  0
 27 59  1  0
 28 60  1  0
 29 61  1  0
 33 62  1  0
 34 63  1  0
 35 64  1  0
M  END
