
     RDKit          3D

 54 57  0  0  0  0  0  0  0  0999 V2000
    6.0886    0.5009   10.5569 C   0  0  0  0  0  0  0  0  0  0  0  0
    4.8843    0.9497    9.9933 C   0  0  0  0  0  0  0  0  0  0  0  0
    4.8718    1.5023    8.7182 C   0  0  0  0  0  0  0  0  0  0  0  0
    6.0534    1.5634    7.9806 C   0  0  0  0  0  0  0  0  0  0  0  0
    7.2422    1.0918    8.5156 C   0  0  0  0  0  0  0  0  0  0  0  0
    7.2526    0.5615    9.8014 C   0  0  0  0  0  0  0  0  0  0  0  0
    6.0984    2.1759    6.7163 N   0  0  0  0  0  0  0  0  0  0  0  0
    5.1867    2.1179    5.7316 C   0  0  0  0  0  0  0  0  0  0  0  0
    4.1455    1.2949    5.8473 N   0  0  0  0  0  0  0  0  0  0  0  0
    3.2634    1.3056    4.8556 C   0  0  0  0  0  0  0  0  0  0  0  0
    3.3825    2.0815    3.7757 N   0  0  0  0  0  0  0  0  0  0  0  0
    4.4695    2.8334    3.7448 C   0  0  0  0  0  0  0  0  0  0  0  0
    5.4040    2.9032    4.6703 N   0  0  0  0  0  0  0  0  0  0  0  0
    8.4131    0.0776   10.3151 O   0  0  0  0  0  0  0  0  0  0  0  0
    9.1420    1.0097   11.1028 C   0  0  0  0  0  0  0  0  0  0  0  0
    6.1211    0.0508   11.8362 O   0  0  0  0  0  0  0  0  0  0  0  0
    5.8628   -1.3377   11.9944 C   0  0  0  0  0  0  0  0  0  0  0  0
    3.8017    0.8357   10.7757 O   0  0  0  0  0  0  0  0  0  0  0  0
    2.5439    1.2169   10.2547 C   0  0  0  0  0  0  0  0  0  0  0  0
    2.0940    0.4231    4.9355 C   0  0  0  0  0  0  0  0  0  0  0  0
    1.1025    0.5485    3.9656 C   0  0  0  0  0  0  0  0  0  0  0  0
   -0.0164   -0.2620    3.9787 C   0  0  0  0  0  0  0  0  0  0  0  0
   -0.0968   -1.2078    4.9874 C   0  0  0  0  0  0  0  0  0  0  0  0
    0.8218   -1.3634    5.9240 N   0  0  0  0  0  0  0  0  0  0  0  0
    1.8999   -0.5814    5.9331 C   0  0  0  0  0  0  0  0  0  0  0  0
    2.8235   -0.7828    6.9060 N   0  0  0  0  0  0  0  0  0  0  0  0
    2.9198   -1.8016    7.8550 C   0  0  0  0  0  0  0  0  0  0  0  0
    4.2108   -2.1105    8.2976 C   0  0  0  0  0  0  0  0  0  0  0  0
    4.4172   -3.0871    9.2550 C   0  0  0  0  0  0  0  0  0  0  0  0
    3.3414   -3.7775    9.7984 C   0  0  0  0  0  0  0  0  0  0  0  0
    2.0591   -3.4637    9.3721 C   0  0  0  0  0  0  0  0  0  0  0  0
    1.8368   -2.4853    8.4121 C   0  0  0  0  0  0  0  0  0  0  0  0
    3.9607    1.9059    8.3037 H   0  0  0  0  0  0  0  0  0  0  0  0
    8.1599    1.1273    7.9415 H   0  0  0  0  0  0  0  0  0  0  0  0
    6.9166    2.7280    6.5049 H   0  0  0  0  0  0  0  0  0  0  0  0
    4.6061    3.4578    2.8682 H   0  0  0  0  0  0  0  0  0  0  0  0
   10.0656    0.5204   11.4051 H   0  0  0  0  0  0  0  0  0  0  0  0
    8.5899    1.3040   11.9977 H   0  0  0  0  0  0  0  0  0  0  0  0
    9.3908    1.9079   10.5312 H   0  0  0  0  0  0  0  0  0  0  0  0
    6.5591   -1.9459   11.4119 H   0  0  0  0  0  0  0  0  0  0  0  0
    4.8428   -1.5953   11.7027 H   0  0  0  0  0  0  0  0  0  0  0  0
    5.9964   -1.5687   13.0496 H   0  0  0  0  0  0  0  0  0  0  0  0
    2.2865    0.6497    9.3564 H   0  0  0  0  0  0  0  0  0  0  0  0
    2.5016    2.2849   10.0257 H   0  0  0  0  0  0  0  0  0  0  0  0
    1.8121    0.9978   11.0279 H   0  0  0  0  0  0  0  0  0  0  0  0
    1.2233    1.2977    3.1960 H   0  0  0  0  0  0  0  0  0  0  0  0
   -0.7957   -0.1670    3.2371 H   0  0  0  0  0  0  0  0  0  0  0  0
   -0.9491   -1.8764    5.0444 H   0  0  0  0  0  0  0  0  0  0  0  0
    3.6288   -0.1638    6.8399 H   0  0  0  0  0  0  0  0  0  0  0  0
    5.0600   -1.5863    7.8751 H   0  0  0  0  0  0  0  0  0  0  0  0
    5.4272   -3.3137    9.5702 H   0  0  0  0  0  0  0  0  0  0  0  0
    3.4993   -4.5458   10.5437 H   0  0  0  0  0  0  0  0  0  0  0  0
    1.2083   -3.9861    9.7912 H   0  0  0  0  0  0  0  0  0  0  0  0
    0.8304   -2.2597    8.1008 H   0  0  0  0  0  0  0  0  0  0  0  0
 15 14  1  0
 14  6  1  0
 16  1  1  0
 16 17  1  0
  6  1  2  0
  6  5  1  0
  1  2  1  0
  5  4  2  0
  2 18  1  0
  2  3  2  0
  4  7  1  0
  4  3  1  0
 18 19  1  0
  7  8  1  0
  8 13  1  0
  8  9  2  0
 13 12  2  0
  9 10  1  0
 12 11  1  0
 10 11  2  0
 10 20  1  0
 21 20  2  0
 21 22  1  0
 20 25  1  0
 22 23  2  0
 25 26  1  0
 25 24  2  0
 26 27  1  0
 23 24  1  0
 27 28  2  0
 27 32  1  0
 28 29  1  0
 32 31  2  0
 29 30  2  0
 31 30  1  0
  3 33  1  0
  5 34  1  0
  7 35  1  0
 12 36  1  0
 15 37  1  0
 15 38  1  0
 15 39  1  0
 17 40  1  0
 17 41  1  0
 17 42  1  0
 19 43  1  0
 19 44  1  0
 19 45  1  0
 21 46  1  0
 22 47  1  0
 23 48  1  0
 26 49  1  0
 28 50  1  0
 29 51  1  0
 30 52  1  0
 31 53  1  0
 32 54  1  0
M  END
