
     RDKit          3D

 45 47  0  0  0  0  0  0  0  0999 V2000
    5.4178   -1.4474    0.5986 F   0  0  0  0  0  0  0  0  0  0  0  0
    5.4323   -0.1046    0.4919 C   0  0  0  0  0  0  0  0  0  0  0  0
    6.6492    0.5131    0.2820 C   0  0  0  0  0  0  0  0  0  0  0  0
    6.6820    1.8952    0.1596 C   0  0  0  0  0  0  0  0  0  0  0  0
    5.5040    2.6218    0.2508 C   0  0  0  0  0  0  0  0  0  0  0  0
    4.2980    1.9678    0.4669 C   0  0  0  0  0  0  0  0  0  0  0  0
    4.2290    0.5823    0.5961 C   0  0  0  0  0  0  0  0  0  0  0  0
    2.9288   -0.1624    0.7959 C   0  0  1  0  0  0  0  0  0  0  0  0
    1.8917    0.6446    1.5701 C   0  0  0  0  0  0  0  0  0  0  0  0
    2.3801   -0.6024   -0.5720 C   0  0  0  0  0  0  0  0  0  0  0  0
    1.1987   -1.5367   -0.4157 C   0  0  0  0  0  0  0  0  0  0  0  0
    1.3066   -2.6036    0.1770 O   0  0  0  0  0  0  0  0  0  0  0  0
    0.0464   -1.1063   -0.9514 N   0  0  0  0  0  0  0  0  0  0  0  0
   -1.1983   -1.8589   -0.9074 C   0  0  2  0  0  0  0  0  0  0  0  0
   -1.3766   -2.7113   -2.1597 C   0  0  0  0  0  0  0  0  0  0  0  0
   -2.3505   -0.9109   -0.6604 C   0  0  0  0  0  0  0  0  0  0  0  0
   -2.9484   -0.8802    0.5996 C   0  0  0  0  0  0  0  0  0  0  0  0
   -3.9821    0.0110    0.8093 C   0  0  0  0  0  0  0  0  0  0  0  0
   -4.7645    0.2743    1.9117 N   0  0  0  0  0  0  0  0  0  0  0  0
   -5.6784    1.2629    1.6400 C   0  0  0  0  0  0  0  0  0  0  0  0
   -6.5128    1.7261    2.3960 O   0  0  0  0  0  0  0  0  0  0  0  0
   -5.4483    1.6151    0.3329 N   0  0  0  0  0  0  0  0  0  0  0  0
   -4.4209    0.8699   -0.2028 C   0  0  0  0  0  0  0  0  0  0  0  0
   -3.8354    0.8518   -1.4532 C   0  0  0  0  0  0  0  0  0  0  0  0
   -2.7988   -0.0521   -1.6655 C   0  0  0  0  0  0  0  0  0  0  0  0
    7.5529   -0.0791    0.2160 H   0  0  0  0  0  0  0  0  0  0  0  0
    7.6261    2.3964   -0.0072 H   0  0  0  0  0  0  0  0  0  0  0  0
    5.5202    3.6994    0.1577 H   0  0  0  0  0  0  0  0  0  0  0  0
    3.3927    2.5564    0.5391 H   0  0  0  0  0  0  0  0  0  0  0  0
    3.1419   -1.0664    1.3706 H   0  0  0  0  0  0  0  0  0  0  0  0
    2.2911    0.9872    2.5248 H   0  0  0  0  0  0  0  0  0  0  0  0
    1.5506    1.5179    1.0124 H   0  0  0  0  0  0  0  0  0  0  0  0
    1.0110    0.0376    1.7826 H   0  0  0  0  0  0  0  0  0  0  0  0
    2.1208    0.2789   -1.1641 H   0  0  0  0  0  0  0  0  0  0  0  0
    3.1511   -1.1427   -1.1272 H   0  0  0  0  0  0  0  0  0  0  0  0
    0.0429   -0.2227   -1.4367 H   0  0  0  0  0  0  0  0  0  0  0  0
   -1.1260   -2.5292   -0.0501 H   0  0  0  0  0  0  0  0  0  0  0  0
   -0.5531   -3.4196   -2.2546 H   0  0  0  0  0  0  0  0  0  0  0  0
   -2.3060   -3.2786   -2.1065 H   0  0  0  0  0  0  0  0  0  0  0  0
   -1.4013   -2.1041   -3.0651 H   0  0  0  0  0  0  0  0  0  0  0  0
   -2.6127   -1.5411    1.3894 H   0  0  0  0  0  0  0  0  0  0  0  0
   -2.3366   -0.0801   -2.6443 H   0  0  0  0  0  0  0  0  0  0  0  0
   -4.6968   -0.1812    2.8076 H   0  0  0  0  0  0  0  0  0  0  0  0
   -5.9748    2.3276   -0.1464 H   0  0  0  0  0  0  0  0  0  0  0  0
   -4.1688    1.5113   -2.2430 H   0  0  0  0  0  0  0  0  0  0  0  0
  1  2  1  0
  2  3  2  0
  2  7  1  0
  3  4  1  0
  4  5  2  0
  5  6  1  0
  6  7  2  0
  7  8  1  0
  8  9  1  0
  8 10  1  0
 10 11  1  0
 11 12  2  0
 11 13  1  0
 13 14  1  0
 14 15  1  0
 14 16  1  0
 16 17  2  0
 16 25  1  0
 17 18  1  0
 18 19  1  0
 18 23  2  0
 19 20  1  0
 20 21  2  0
 20 22  1  0
 22 23  1  0
 23 24  1  0
 24 25  2  0
  3 26  1  0
  4 27  1  0
  5 28  1  0
  6 29  1  0
  8 30  1  1
  9 31  1  0
  9 32  1  0
  9 33  1  0
 10 34  1  0
 10 35  1  0
 13 36  1  0
 14 37  1  1
 15 38  1  0
 15 39  1  0
 15 40  1  0
 17 41  1  0
 25 42  1  0
 19 43  1  0
 22 44  1  0
 24 45  1  0
M  END
