
     RDKit          3D

 30 31  0  0  0  0  0  0  0  0999 V2000
   -3.0308   -0.6295   -0.9872 C   0  0  0  0  0  0  0  0  0  0  0  0
   -4.3988   -0.7926   -1.0861 C   0  0  0  0  0  0  0  0  0  0  0  0
   -5.2575    0.0700   -0.4041 C   0  0  0  0  0  0  0  0  0  0  0  0
   -4.7233    1.0953    0.3738 C   0  0  0  0  0  0  0  0  0  0  0  0
   -3.3514    1.2489    0.4683 C   0  0  0  0  0  0  0  0  0  0  0  0
   -2.4821    0.3897   -0.2044 C   0  0  0  0  0  0  0  0  0  0  0  0
   -1.0367    0.5818   -0.1147 C   0  0  0  0  0  0  0  0  0  0  0  0
   -0.0326   -0.3213    0.1155 C   0  0  0  0  0  0  0  0  0  0  0  0
    1.2629    0.2588    0.1417 C   0  0  0  0  0  0  0  0  0  0  0  0
    1.2299    1.6127   -0.0802 C   0  0  0  0  0  0  0  0  0  0  0  0
   -0.3834    2.1580   -0.3187 S   0  0  0  0  0  0  0  0  0  0  0  0
    2.3592    2.5389   -0.0965 C   0  0  0  0  0  0  0  0  0  0  0  0
    1.9474    3.7916   -0.2482 O   0  0  0  0  0  0  0  0  0  0  0  0
    3.5155    2.2114    0.0125 O   0  0  0  0  0  0  0  0  0  0  0  0
    2.3629   -0.4597    0.4099 O   0  0  0  0  0  0  0  0  0  0  0  0
    3.0898   -0.8888   -0.7247 C   0  0  0  0  0  0  0  0  0  0  0  0
    4.3328   -1.5849   -0.2336 C   0  0  0  0  0  0  0  0  0  0  0  0
    5.0573   -2.0024   -1.2600 O   0  0  0  0  0  0  0  0  0  0  0  0
    4.6238   -1.7381    0.9208 O   0  0  0  0  0  0  0  0  0  0  0  0
   -0.2767   -2.1336    0.4810 Br  0  0  0  0  0  0  0  0  0  0  0  0
   -6.5781   -0.1298   -0.5348 O   0  0  0  0  0  0  0  0  0  0  0  0
   -2.3851   -1.2895   -1.5505 H   0  0  0  0  0  0  0  0  0  0  0  0
   -4.8083   -1.5834   -1.7019 H   0  0  0  0  0  0  0  0  0  0  0  0
   -5.3762    1.7718    0.9128 H   0  0  0  0  0  0  0  0  0  0  0  0
   -2.9569    2.0423    1.0911 H   0  0  0  0  0  0  0  0  0  0  0  0
    2.7039    4.3971   -0.2695 H   0  0  0  0  0  0  0  0  0  0  0  0
    3.3777   -0.0472   -1.3610 H   0  0  0  0  0  0  0  0  0  0  0  0
    2.5031   -1.5825   -1.3372 H   0  0  0  0  0  0  0  0  0  0  0  0
    5.8602   -2.4467   -0.9484 H   0  0  0  0  0  0  0  0  0  0  0  0
   -7.0739    0.5372   -0.0459 H   0  0  0  0  0  0  0  0  0  0  0  0
  1  2  2  0
  1  6  1  0
  1 22  1  0
  2  3  1  0
  2 23  1  0
  3  4  2  0
  3 21  1  0
  4  5  1  0
  4 24  1  0
  5  6  2  0
  5 25  1  0
  6  7  1  0
  7  8  2  0
  7 11  1  0
  8  9  1  0
  8 20  1  0
  9 10  2  0
  9 15  1  0
 10 11  1  0
 10 12  1  0
 12 13  1  0
 12 14  2  0
 13 26  1  0
 15 16  1  0
 16 17  1  0
 16 27  1  0
 16 28  1  0
 17 18  1  0
 17 19  2  0
 18 29  1  0
 21 30  1  0
M  END
