
     RDKit          3D

 32 33  0  0  0  0  0  0  0  0999 V2000
   -2.3908    0.2667   -0.9550 C   0  0  0  0  0  0  0  0  0  0  0  0
   -3.7876    0.0183   -0.3111 C   0  0  1  0  0  0  0  0  0  0  0  0
   -3.9101   -1.4301    0.1116 C   0  0  0  0  0  0  0  0  0  0  0  0
   -1.8084    1.4010   -0.1049 C   0  0  1  0  0  0  0  0  0  0  0  0
   -2.5681    1.2733    1.2223 C   0  0  0  0  0  0  0  0  0  0  0  0
    3.6438   -0.3933   -0.4284 C   0  0  0  0  0  0  0  0  0  0  0  0
    2.9713    0.2125    0.7992 C   0  0  0  0  0  0  0  0  0  0  0  0
    4.9696   -1.0322   -0.1210 C   0  0  0  0  0  0  0  0  0  0  0  0
    5.4845   -1.0710    0.9686 O   0  0  0  0  0  0  0  0  0  0  0  0
   -3.8982   -1.8293    1.2464 O   0  0  0  0  0  0  0  0  0  0  0  0
   -3.9127    0.9053    0.8324 N   0  0  0  0  0  0  0  0  0  0  0  0
   -0.3687    1.3559    0.0294 N   0  0  0  0  0  0  0  0  0  0  0  0
    0.4035    0.3607    0.5032 C   0  0  0  0  0  0  0  0  0  0  0  0
    1.6787    0.8617    0.4446 C   0  0  0  0  0  0  0  0  0  0  0  0
    1.6000    2.1150   -0.0555 N   0  0  0  0  0  0  0  0  0  0  0  0
    0.3675    2.4023   -0.2982 N   0  0  0  0  0  0  0  0  0  0  0  0
   -1.7502   -0.6167   -0.9116 H   0  0  0  0  0  0  0  0  0  0  0  0
   -2.4745    0.5453   -2.0033 H   0  0  0  0  0  0  0  0  0  0  0  0
   -4.5814    0.2249   -1.0313 H   0  0  0  0  0  0  0  0  0  0  0  0
   -2.0330    2.3683   -0.5542 H   0  0  0  0  0  0  0  0  0  0  0  0
   -2.1240    0.4884    1.8420 H   0  0  0  0  0  0  0  0  0  0  0  0
   -2.5620    2.1948    1.8025 H   0  0  0  0  0  0  0  0  0  0  0  0
    2.9969   -1.1464   -0.8874 H   0  0  0  0  0  0  0  0  0  0  0  0
    3.7988    0.3701   -1.1963 H   0  0  0  0  0  0  0  0  0  0  0  0
    2.7956   -0.5610    1.5476 H   0  0  0  0  0  0  0  0  0  0  0  0
    3.6308    0.9518    1.2564 H   0  0  0  0  0  0  0  0  0  0  0  0
    0.0186   -0.5898    0.8326 H   0  0  0  0  0  0  0  0  0  0  0  0
   -4.0058   -2.2259   -0.9486 O   0  0  0  0  0  0  0  0  0  0  0  0
   -4.0354   -3.1532   -0.6694 H   0  0  0  0  0  0  0  0  0  0  0  0
   -4.4227    1.7328    0.5536 H   0  0  0  0  0  0  0  0  0  0  0  0
    5.5247   -1.5620   -1.2060 O   0  0  0  0  0  0  0  0  0  0  0  0
    6.3769   -1.9632   -0.9792 H   0  0  0  0  0  0  0  0  0  0  0  0
  1  2  1  0
  1  4  1  0
  2  3  1  0
  2 11  1  0
  3 10  2  0
  4  5  1  0
  4 12  1  0
  5 11  1  0
  6  8  1  0
  6  7  1  0
  7 14  1  0
  8  9  2  0
 12 13  1  0
 12 16  1  0
 13 14  2  0
 14 15  1  0
 15 16  2  0
  1 17  1  0
  1 18  1  0
  2 19  1  6
  4 20  1  6
  5 21  1  0
  5 22  1  0
  6 23  1  0
  6 24  1  0
  7 25  1  0
  7 26  1  0
 13 27  1  0
  3 28  1  0
 28 29  1  0
 11 30  1  0
  8 31  1  0
 31 32  1  0
M  END
