
     RDKit          3D

 56 60  0  0  0  0  0  0  0  0999 V2000
   11.1386   -1.7071    0.2254 C   0  0  0  0  0  0  0  0  0  0  0  0
    9.8990   -1.4667   -0.2801 C   0  0  0  0  0  0  0  0  0  0  0  0
    8.8321   -0.6063    0.2198 C   0  0  0  0  0  0  0  0  0  0  0  0
    6.5689    0.1603   -0.2727 C   0  0  0  0  0  0  0  0  0  0  0  0
    4.6294    0.9857   -0.4715 C   0  0  0  0  0  0  0  0  0  0  0  0
    3.3477    1.3488   -0.8787 C   0  0  0  0  0  0  0  0  0  0  0  0
    2.6626    2.2473   -0.0827 C   0  0  0  0  0  0  0  0  0  0  0  0
   -8.5629   -0.4450   -2.8287 F   0  0  0  0  0  0  0  0  0  0  0  0
    3.2052    2.7751    1.0941 C   0  0  0  0  0  0  0  0  0  0  0  0
    4.4779    2.4173    1.5080 C   0  0  0  0  0  0  0  0  0  0  0  0
    5.1708    1.5218    0.7086 C   0  0  0  0  0  0  0  0  0  0  0  0
   -4.4452    0.3464   -0.4259 O   0  0  0  0  0  0  0  0  0  0  0  0
    0.3124    2.0668    0.0367 C   0  0  0  0  0  0  0  0  0  0  0  0
   -0.9160    2.6129   -0.3248 C   0  0  0  0  0  0  0  0  0  0  0  0
   -2.0937    2.0646    0.1492 C   0  0  0  0  0  0  0  0  0  0  0  0
   -2.0648    0.9456    0.9800 C   0  0  0  0  0  0  0  0  0  0  0  0
   -0.8345    0.4077    1.3353 C   0  0  0  0  0  0  0  0  0  0  0  0
  -10.4177   -0.4955   -1.7423 F   0  0  0  0  0  0  0  0  0  0  0  0
    0.3532    0.9646    0.8799 C   0  0  0  0  0  0  0  0  0  0  0  0
    8.9704    0.0346    1.2482 O   0  0  0  0  0  0  0  0  0  0  0  0
   -4.3391    0.0798    0.7565 C   0  0  0  0  0  0  0  0  0  0  0  0
   -6.5292   -1.0022    0.9519 C   0  0  0  0  0  0  0  0  0  0  0  0
   -7.2345   -0.3486   -0.0534 C   0  0  0  0  0  0  0  0  0  0  0  0
   -8.4364   -0.8672   -0.5218 C   0  0  0  0  0  0  0  0  0  0  0  0
    9.7180   -2.1709   -1.4192 O   0  0  0  0  0  0  0  0  0  0  0  0
   -8.9675   -2.0324    0.0119 C   0  0  0  0  0  0  0  0  0  0  0  0
   -8.2889   -2.6803    1.0322 C   0  0  0  0  0  0  0  0  0  0  0  0
   -7.0921   -2.1660    1.4751 C   0  0  0  0  0  0  0  0  0  0  0  0
   -9.1279   -0.1604   -1.6448 C   0  0  1  0  0  0  0  0  0  0  0  0
   10.8439   -2.8638   -1.6446 C   0  0  0  0  0  0  0  0  0  0  0  0
   -9.0760    1.1711   -1.5102 F   0  0  0  0  0  0  0  0  0  0  0  0
    7.6973   -0.5758   -0.5364 N   0  0  0  0  0  0  0  0  0  0  0  0
   11.7553   -2.6211   -0.6682 C   0  0  0  0  0  0  0  0  0  0  0  0
    1.4159    2.6706   -0.4840 O   0  0  0  0  0  0  0  0  0  0  0  0
   -6.4354   -2.7954    2.4589 F   0  0  0  0  0  0  0  0  0  0  0  0
    5.5298    0.1353   -1.0626 N   0  0  0  0  0  0  0  0  0  0  0  0
    6.4236    0.9664    0.8037 N   0  0  0  0  0  0  0  0  0  0  0  0
   -3.2390    0.3773    1.5049 N   0  0  0  0  0  0  0  0  0  0  0  0
   -5.3298   -0.5384    1.4826 N   0  0  0  0  0  0  0  0  0  0  0  0
   11.5584   -1.2820    1.1222 H   0  0  0  0  0  0  0  0  0  0  0  0
    2.9081    0.9514   -1.7847 H   0  0  0  0  0  0  0  0  0  0  0  0
    2.6234    3.4753    1.6795 H   0  0  0  0  0  0  0  0  0  0  0  0
    4.9048    2.8255    2.4140 H   0  0  0  0  0  0  0  0  0  0  0  0
   -0.9478    3.4806   -0.9717 H   0  0  0  0  0  0  0  0  0  0  0  0
   -3.0328    2.5252   -0.1205 H   0  0  0  0  0  0  0  0  0  0  0  0
   -0.7932   -0.4624    1.9792 H   0  0  0  0  0  0  0  0  0  0  0  0
    1.2920    0.5189    1.1797 H   0  0  0  0  0  0  0  0  0  0  0  0
   -6.8434    0.5726   -0.4570 H   0  0  0  0  0  0  0  0  0  0  0  0
   -9.9016   -2.4452   -0.3412 H   0  0  0  0  0  0  0  0  0  0  0  0
   -8.6813   -3.5864    1.4736 H   0  0  0  0  0  0  0  0  0  0  0  0
   10.8629   -3.4831   -2.5266 H   0  0  0  0  0  0  0  0  0  0  0  0
    7.6443   -1.1260   -1.3825 H   0  0  0  0  0  0  0  0  0  0  0  0
   12.7440   -3.0426   -0.5966 H   0  0  0  0  0  0  0  0  0  0  0  0
    7.1173    1.1203    1.5191 H   0  0  0  0  0  0  0  0  0  0  0  0
   -3.1656   -0.0153    2.4309 H   0  0  0  0  0  0  0  0  0  0  0  0
   -5.1139   -0.8326    2.4228 H   0  0  0  0  0  0  0  0  0  0  0  0
 35 28  1  0
 28 27  2  0
 28 22  1  0
 27 26  1  0
 39 22  1  0
 39 21  1  0
 15 14  2  0
 15 16  1  0
 22 23  2  0
 38 21  1  0
 38 16  1  0
 14 13  1  0
 26 24  2  0
 21 12  2  0
 16 17  2  0
 23 24  1  0
 13 34  1  0
 13 19  2  0
 24 29  1  0
 34  7  1  0
 17 19  1  0
 29 31  1  1
 29  8  1  0
 29 18  1  0
  6  7  2  0
  6  5  1  0
  7  9  1  0
  9 10  2  0
  5 36  1  0
  5 11  2  0
 36  4  2  0
 20  3  2  0
 11 10  1  0
 11 37  1  0
  4 37  1  0
  4 32  1  0
  3 32  1  0
  3  2  1  0
  1  2  2  0
  1 33  1  0
  2 25  1  0
 33 30  2  0
 25 30  1  0
  1 40  1  0
  6 41  1  0
  9 42  1  0
 10 43  1  0
 14 44  1  0
 15 45  1  0
 17 46  1  0
 19 47  1  0
 23 48  1  0
 26 49  1  0
 27 50  1  0
 30 51  1  0
 32 52  1  0
 33 53  1  0
 37 54  1  0
 38 55  1  0
 39 56  1  0
M  END
