
     RDKit          3D

 66 70  0  0  0  0  0  0  0  0999 V2000
   -2.7826   -0.8632   -0.0525 C   0  0  0  0  0  0  0  0  0  0  0  0
   -1.6733   -0.0199   -0.1269 C   0  0  0  0  0  0  0  0  0  0  0  0
   -0.3985   -0.5587   -0.1969 C   0  0  0  0  0  0  0  0  0  0  0  0
   -0.1856   -1.9367   -0.1954 C   0  0  0  0  0  0  0  0  0  0  0  0
   -1.3037   -2.7715   -0.1167 C   0  0  0  0  0  0  0  0  0  0  0  0
   -2.5749   -2.2464   -0.0470 C   0  0  0  0  0  0  0  0  0  0  0  0
    1.1411   -2.5168   -0.2730 C   0  0  0  0  0  0  0  0  0  0  0  0
    1.5783   -3.8106   -0.3331 C   0  0  0  0  0  0  0  0  0  0  0  0
    2.9908   -3.7547   -0.3953 C   0  0  0  0  0  0  0  0  0  0  0  0
    3.3210   -2.4365   -0.3702 C   0  0  0  0  0  0  0  0  0  0  0  0
    2.1988   -1.6849   -0.2963 O   0  0  0  0  0  0  0  0  0  0  0  0
    4.6401   -1.7982   -0.3878 C   0  0  0  0  0  0  0  0  0  0  0  0
    5.6498   -2.4885   -0.4453 O   0  0  0  0  0  0  0  0  0  0  0  0
    4.6724   -0.4541   -0.3533 N   0  0  0  0  0  0  0  0  0  0  0  0
    5.9265    0.2369   -0.2182 C   0  0  2  0  0  0  0  0  0  0  0  0
    6.5523   -0.0643    1.1492 C   0  0  0  0  0  0  0  0  0  0  0  0
    5.7703    1.7523   -0.4241 C   0  0  1  0  0  0  0  0  0  0  0  0
    7.8754    0.1250    1.2074 N   0  0  0  0  0  0  0  0  0  0  0  0
    5.8841   -0.4121    2.1102 O   0  0  0  0  0  0  0  0  0  0  0  0
   -4.1064   -0.4333    0.0269 N   0  0  0  0  0  0  0  0  0  0  0  0
    8.6323   -0.0453    2.4252 C   0  0  0  0  0  0  0  0  0  0  0  0
    5.3295    2.0856   -1.8502 C   0  0  0  0  0  0  0  0  0  0  0  0
    5.3007    3.5942   -2.0778 C   0  0  0  0  0  0  0  0  0  0  0  0
    4.4115    4.2943   -1.0557 C   0  0  0  0  0  0  0  0  0  0  0  0
    4.8294    3.9460    0.3688 C   0  0  0  0  0  0  0  0  0  0  0  0
    4.8562    2.4362    0.5943 C   0  0  0  0  0  0  0  0  0  0  0  0
   -4.5973    0.8266   -0.0647 C   0  0  0  0  0  0  0  0  0  0  0  0
   -6.0624    0.9281    0.0415 C   0  0  0  0  0  0  0  0  0  0  0  0
   -3.9290    1.8329   -0.2256 O   0  0  0  0  0  0  0  0  0  0  0  0
   -6.7954   -0.2027    0.2328 O   0  0  0  0  0  0  0  0  0  0  0  0
   -6.8457    2.0283   -0.0279 C   0  0  0  0  0  0  0  0  0  0  0  0
   -8.1895    1.5619    0.1309 C   0  0  0  0  0  0  0  0  0  0  0  0
   -8.0894    0.1770    0.2876 C   0  0  0  0  0  0  0  0  0  0  0  0
   -9.1809   -0.6553    0.4695 C   0  0  0  0  0  0  0  0  0  0  0  0
  -10.4197   -0.0377    0.4904 C   0  0  0  0  0  0  0  0  0  0  0  0
  -10.5540    1.3507    0.3350 C   0  0  0  0  0  0  0  0  0  0  0  0
   -9.4511    2.1628    0.1552 C   0  0  0  0  0  0  0  0  0  0  0  0
   -1.7861    1.0512   -0.1306 H   0  0  0  0  0  0  0  0  0  0  0  0
    0.4365    0.1268   -0.2535 H   0  0  0  0  0  0  0  0  0  0  0  0
   -1.1860   -3.8471   -0.1085 H   0  0  0  0  0  0  0  0  0  0  0  0
   -3.4220   -2.9191    0.0100 H   0  0  0  0  0  0  0  0  0  0  0  0
    0.9656   -4.6974   -0.3334 H   0  0  0  0  0  0  0  0  0  0  0  0
    3.6765   -4.5840   -0.4494 H   0  0  0  0  0  0  0  0  0  0  0  0
    3.8194    0.0598   -0.1990 H   0  0  0  0  0  0  0  0  0  0  0  0
    6.6081   -0.1239   -0.9956 H   0  0  0  0  0  0  0  0  0  0  0  0
    6.7763    2.1665   -0.2892 H   0  0  0  0  0  0  0  0  0  0  0  0
   -4.7803   -1.1769    0.1404 H   0  0  0  0  0  0  0  0  0  0  0  0
    8.6059   -1.0773    2.7773 H   0  0  0  0  0  0  0  0  0  0  0  0
    9.6663    0.2227    2.2285 H   0  0  0  0  0  0  0  0  0  0  0  0
    6.0051    1.6090   -2.5659 H   0  0  0  0  0  0  0  0  0  0  0  0
    4.3329    1.6735   -2.0406 H   0  0  0  0  0  0  0  0  0  0  0  0
    6.3200    3.9879   -2.0033 H   0  0  0  0  0  0  0  0  0  0  0  0
    4.9582    3.8105   -3.0923 H   0  0  0  0  0  0  0  0  0  0  0  0
    4.4416    5.3764   -1.2046 H   0  0  0  0  0  0  0  0  0  0  0  0
    3.3713    3.9881   -1.2113 H   0  0  0  0  0  0  0  0  0  0  0  0
    5.8246    4.3574    0.5685 H   0  0  0  0  0  0  0  0  0  0  0  0
    4.1520    4.4128    1.0874 H   0  0  0  0  0  0  0  0  0  0  0  0
    3.8314    2.0564    0.5048 H   0  0  0  0  0  0  0  0  0  0  0  0
    5.1779    2.2191    1.6150 H   0  0  0  0  0  0  0  0  0  0  0  0
   -6.5134    3.0427   -0.1768 H   0  0  0  0  0  0  0  0  0  0  0  0
   -9.0740   -1.7251    0.5866 H   0  0  0  0  0  0  0  0  0  0  0  0
  -11.3062   -0.6418    0.6302 H   0  0  0  0  0  0  0  0  0  0  0  0
  -11.5432    1.7883    0.3569 H   0  0  0  0  0  0  0  0  0  0  0  0
   -9.5599    3.2328    0.0371 H   0  0  0  0  0  0  0  0  0  0  0  0
    8.3737    0.3671    0.3670 H   0  0  0  0  0  0  0  0  0  0  0  0
    8.2568    0.5968    3.2220 H   0  0  0  0  0  0  0  0  0  0  0  0
  1  6  1  0
  1  2  2  0
  2  3  1  0
  2 38  1  0
  3  4  2  0
  3 39  1  0
  4  7  1  0
  5  4  1  0
  5 40  1  0
  6  5  2  0
  6 41  1  0
  7  8  2  0
  7 11  1  0
  8  9  1  0
  8 42  1  0
  9 10  2  0
  9 43  1  0
 10 12  1  0
 11 10  1  0
 12 13  2  0
 14 12  1  0
 14 15  1  0
 14 44  1  0
 15 45  1  6
 16 15  1  0
 16 18  1  0
 17 15  1  0
 17 26  1  0
 17 46  1  1
 19 16  2  0
 20  1  1  0
 20 47  1  0
 21 18  1  0
 21 48  1  0
 21 49  1  0
 22 17  1  0
 22 50  1  0
 22 51  1  0
 23 22  1  0
 23 24  1  0
 23 52  1  0
 23 53  1  0
 24 25  1  0
 24 54  1  0
 24 55  1  0
 25 26  1  0
 25 56  1  0
 25 57  1  0
 26 58  1  0
 26 59  1  0
 27 20  1  0
 27 29  2  0
 28 27  1  0
 30 28  1  0
 31 28  2  0
 31 60  1  0
 32 31  1  0
 33 30  1  0
 33 32  2  0
 34 33  1  0
 34 61  1  0
 35 34  2  0
 35 36  1  0
 35 62  1  0
 36 37  2  0
 36 63  1  0
 37 32  1  0
 37 64  1  0
 18 65  1  0
 21 66  1  0
M  END
