
     RDKit          3D

 20 20  0  0  0  0  0  0  0  0999 V2000
    0.0168    0.0083   -2.7235 C   0  0  0  0  0  0  0  0  0  0  0  0
    0.0262    1.0651   -3.3255 O   0  0  0  0  0  0  0  0  0  0  0  0
    0.0153   -1.2010   -3.2797 N   0  0  0  0  0  0  0  0  0  0  0  0
    0.0088   -0.0061   -1.2149 C   0  0  0  0  0  0  0  0  0  0  0  0
   -1.1795    0.0347   -0.5133 C   0  0  0  0  0  0  0  0  0  0  0  0
    1.1906    0.0335   -0.5014 C   0  0  0  0  0  0  0  0  0  0  0  0
   -2.3330    0.0041   -1.1789 F   0  0  0  0  0  0  0  0  0  0  0  0
    2.3505    0.0031   -1.1558 F   0  0  0  0  0  0  0  0  0  0  0  0
   -1.1938    0.0978    0.8665 C   0  0  0  0  0  0  0  0  0  0  0  0
    1.1910    0.1004    0.8776 C   0  0  0  0  0  0  0  0  0  0  0  0
   -0.0054    0.1419    1.5851 C   0  0  0  0  0  0  0  0  0  0  0  0
   -2.3530    0.1299    1.5170 F   0  0  0  0  0  0  0  0  0  0  0  0
    2.3435    0.1399    1.5401 F   0  0  0  0  0  0  0  0  0  0  0  0
   -0.0158    0.2543    2.9239 O   0  0  0  0  0  0  0  0  0  0  0  0
    0.0509   -0.9868    3.6335 C   0  0  0  0  0  0  0  0  0  0  0  0
    0.0126   -1.3035   -4.2828 H   0  0  0  0  0  0  0  0  0  0  0  0
   -0.0032   -2.0406   -2.7252 H   0  0  0  0  0  0  0  0  0  0  0  0
    0.0550   -0.7385    4.6915 H   0  0  0  0  0  0  0  0  0  0  0  0
   -0.8146   -1.6154    3.4171 H   0  0  0  0  0  0  0  0  0  0  0  0
    0.9622   -1.5369    3.3937 H   0  0  0  0  0  0  0  0  0  0  0  0
  1  2  2  0
  1  3  1  0
  1  4  1  0
  3 16  1  0
  3 17  1  0
  4  5  2  0
  4  6  1  0
  5  7  1  0
  5  9  1  0
  6  8  1  0
  6 10  2  0
  9 11  2  0
  9 12  1  0
 10 11  1  0
 10 13  1  0
 11 14  1  0
 14 15  1  0
 15 18  1  0
 15 19  1  0
 15 20  1  0
M  END
