
     RDKit          3D

 67 71  0  0  0  0  0  0  0  0999 V2000
    5.4183   -3.1939   -1.2462 O   0  0  0  0  0  0  0  0  0  0  0  0
    4.4349   -2.5247   -0.9726 C   0  0  0  0  0  0  0  0  0  0  0  0
    3.5053   -1.9935   -2.0306 C   0  0  0  0  0  0  0  0  0  0  0  0
    4.1259   -2.1374    0.3967 C   0  0  0  0  0  0  0  0  0  0  0  0
    3.0399   -1.4063    0.7305 C   0  0  0  0  0  0  0  0  0  0  0  0
    2.8197   -0.9661    2.1400 C   0  0  0  0  0  0  0  0  0  0  0  0
    2.0089   -1.0524   -0.2465 C   0  0  0  0  0  0  0  0  0  0  0  0
    2.0752   -1.8494   -1.5231 C   0  0  0  0  0  0  0  0  0  0  0  0
    1.0340   -0.1675    0.0583 C   0  0  0  0  0  0  0  0  0  0  0  0
   -0.1286    0.0749   -0.8851 C   0  0  1  0  0  0  0  0  0  0  0  0
   -1.2817   -0.8869   -0.6189 C   0  0  0  0  0  0  0  0  0  0  0  0
   -2.4232   -0.8390   -1.4164 C   0  0  0  0  0  0  0  0  0  0  0  0
   -3.4901   -1.7018   -1.2398 C   0  0  0  0  0  0  0  0  0  0  0  0
   -3.4755   -2.6794   -0.2278 C   0  0  0  0  0  0  0  0  0  0  0  0
   -4.5463   -3.5146   -0.0158 N   0  0  0  0  0  0  0  0  0  0  0  0
   -5.6124   -3.5515   -0.9884 C   0  0  0  0  0  0  0  0  0  0  0  0
   -4.3975   -4.6409    0.8745 C   0  0  0  0  0  0  0  0  0  0  0  0
   -2.3117   -2.7531    0.5539 C   0  0  0  0  0  0  0  0  0  0  0  0
   -1.2537   -1.8781    0.3555 C   0  0  0  0  0  0  0  0  0  0  0  0
   -0.5434    1.5623   -0.9602 C   0  0  0  0  0  0  0  0  0  0  0  0
   -0.6824    2.2218    0.4010 C   0  0  2  0  0  0  0  0  0  0  0  0
   -1.8891    1.6577    1.1615 C   0  0  0  0  0  0  0  0  0  0  0  0
   -0.7769    3.7725    0.4083 C   0  0  1  0  0  0  0  0  0  0  0  0
    0.1782    4.3830   -0.5316 C   0  0  0  0  0  0  0  0  0  0  0  0
    0.9382    4.9310   -1.2882 C   0  0  0  0  0  0  0  0  0  0  0  0
    1.8619    5.5819   -2.2049 C   0  0  0  0  0  0  0  0  0  0  0  0
   -2.0824    4.1781    0.0711 O   0  0  0  0  0  0  0  0  0  0  0  0
   -0.3629    4.1245    1.8676 C   0  0  0  0  0  0  0  0  0  0  0  0
    0.5175    2.9560    2.3630 C   0  0  0  0  0  0  0  0  0  0  0  0
    0.6364    2.0330    1.1481 C   0  0  1  0  0  0  0  0  0  0  0  0
    1.0059    0.5754    1.3837 C   0  0  2  0  0  0  0  0  0  0  0  0
    2.3195    0.4666    2.1446 C   0  0  0  0  0  0  0  0  0  0  0  0
    3.8886   -1.0128   -2.3352 H   0  0  0  0  0  0  0  0  0  0  0  0
    3.5425   -2.6361   -2.9114 H   0  0  0  0  0  0  0  0  0  0  0  0
    4.8361   -2.4241    1.1651 H   0  0  0  0  0  0  0  0  0  0  0  0
    3.7322   -1.0744    2.7274 H   0  0  0  0  0  0  0  0  0  0  0  0
    2.0645   -1.6148    2.5988 H   0  0  0  0  0  0  0  0  0  0  0  0
    1.4673   -1.4168   -2.3148 H   0  0  0  0  0  0  0  0  0  0  0  0
    1.6636   -2.8463   -1.3305 H   0  0  0  0  0  0  0  0  0  0  0  0
    0.2118   -0.1528   -1.8971 H   0  0  0  0  0  0  0  0  0  0  0  0
   -2.4927   -0.1122   -2.2175 H   0  0  0  0  0  0  0  0  0  0  0  0
   -4.3358   -1.6066   -1.9065 H   0  0  0  0  0  0  0  0  0  0  0  0
   -6.0937   -2.5769   -1.0910 H   0  0  0  0  0  0  0  0  0  0  0  0
   -5.2767   -3.8641   -1.9840 H   0  0  0  0  0  0  0  0  0  0  0  0
   -6.3760   -4.2511   -0.6574 H   0  0  0  0  0  0  0  0  0  0  0  0
   -4.1263   -4.3203    1.8823 H   0  0  0  0  0  0  0  0  0  0  0  0
   -5.3471   -5.1649    0.9479 H   0  0  0  0  0  0  0  0  0  0  0  0
   -3.6412   -5.3599    0.5379 H   0  0  0  0  0  0  0  0  0  0  0  0
   -2.2142   -3.4958    1.3332 H   0  0  0  0  0  0  0  0  0  0  0  0
   -0.3859   -1.9892    0.9949 H   0  0  0  0  0  0  0  0  0  0  0  0
    0.2367    2.0785   -1.5243 H   0  0  0  0  0  0  0  0  0  0  0  0
   -1.4589    1.6547   -1.5486 H   0  0  0  0  0  0  0  0  0  0  0  0
   -1.7527    0.6091    1.4145 H   0  0  0  0  0  0  0  0  0  0  0  0
   -2.0954    2.1865    2.0921 H   0  0  0  0  0  0  0  0  0  0  0  0
   -2.7875    1.7100    0.5466 H   0  0  0  0  0  0  0  0  0  0  0  0
    2.8921    5.3013   -1.9849 H   0  0  0  0  0  0  0  0  0  0  0  0
    1.6549    5.3044   -3.2386 H   0  0  0  0  0  0  0  0  0  0  0  0
    1.7904    6.6672   -2.1296 H   0  0  0  0  0  0  0  0  0  0  0  0
   -2.1363    5.1365    0.1518 H   0  0  0  0  0  0  0  0  0  0  0  0
    0.1554    5.0825    1.9096 H   0  0  0  0  0  0  0  0  0  0  0  0
   -1.2635    4.2248    2.4751 H   0  0  0  0  0  0  0  0  0  0  0  0
    1.4917    3.2946    2.7156 H   0  0  0  0  0  0  0  0  0  0  0  0
    0.0398    2.4390    3.1985 H   0  0  0  0  0  0  0  0  0  0  0  0
    1.4249    2.4458    0.5033 H   0  0  0  0  0  0  0  0  0  0  0  0
    0.2288    0.1101    2.0084 H   0  0  0  0  0  0  0  0  0  0  0  0
    3.0702    1.1181    1.6847 H   0  0  0  0  0  0  0  0  0  0  0  0
    2.1828    0.8128    3.1706 H   0  0  0  0  0  0  0  0  0  0  0  0
  1  2  2  0
  2  3  1  0
  2  4  1  0
  3  8  1  0
  3 33  1  0
  3 34  1  0
  4  5  2  0
  4 35  1  0
  5  6  1  0
  5  7  1  0
  6 32  1  0
  6 36  1  0
  6 37  1  0
  7  8  1  0
  7  9  2  0
  8 38  1  0
  8 39  1  0
  9 10  1  0
  9 31  1  0
 10 11  1  0
 10 20  1  0
 10 40  1  6
 11 12  2  0
 11 19  1  0
 12 13  1  0
 12 41  1  0
 13 14  2  0
 13 42  1  0
 14 15  1  0
 14 18  1  0
 15 16  1  0
 15 17  1  0
 16 43  1  0
 16 44  1  0
 16 45  1  0
 17 46  1  0
 17 47  1  0
 17 48  1  0
 18 19  2  0
 18 49  1  0
 19 50  1  0
 20 21  1  0
 20 51  1  0
 20 52  1  0
 21 22  1  1
 21 23  1  0
 21 30  1  0
 22 53  1  0
 22 54  1  0
 22 55  1  0
 23 24  1  6
 23 27  1  0
 23 28  1  0
 24 25  3  0
 25 26  1  0
 26 56  1  0
 26 57  1  0
 26 58  1  0
 27 59  1  0
 28 29  1  0
 28 60  1  0
 28 61  1  0
 29 30  1  0
 29 62  1  0
 29 63  1  0
 30 31  1  0
 30 64  1  6
 31 32  1  0
 31 65  1  1
 32 66  1  0
 32 67  1  0
M  END
