
     RDKit          3D

 63 67  0  0  0  0  0  0  0  0999 V2000
   -5.9990    3.7144    0.3120 C   0  0  0  0  0  0  0  0  0  0  0  0
   -0.7831   -1.6420   -0.4723 N   0  0  0  0  0  0  0  0  0  0  0  0
   -6.9322    2.6513    0.3384 O   0  0  0  0  0  0  0  0  0  0  0  0
   -6.4687    1.3987    0.2363 C   0  0  0  0  0  0  0  0  0  0  0  0
   -5.4629   -2.6325   -0.0332 N   0  0  0  0  0  0  0  0  0  0  0  0
   -5.1503    1.0498    0.0946 C   0  0  0  0  0  0  0  0  0  0  0  0
    3.7316    0.3162   -0.1939 O   0  0  0  0  0  0  0  0  0  0  0  0
   -4.7589   -0.3021   -0.0026 C   0  0  0  0  0  0  0  0  0  0  0  0
    1.0836    2.7318   -0.7633 N   0  0  0  0  0  0  0  0  0  0  0  0
   -3.3922   -0.7118   -0.1568 C   0  0  0  0  0  0  0  0  0  0  0  0
    6.0119   -0.5035    1.3316 N   0  0  0  0  0  0  0  0  0  0  0  0
   -2.3078    0.1806   -0.2166 C   0  0  0  0  0  0  0  0  0  0  0  0
   -1.0393   -0.3281   -0.3807 C   0  0  0  0  0  0  0  0  0  0  0  0
   -1.7737   -2.5088   -0.4065 C   0  0  0  0  0  0  0  0  0  0  0  0
   -3.1345   -2.0890   -0.2496 C   0  0  0  0  0  0  0  0  0  0  0  0
   -4.2262   -2.9924   -0.1729 C   0  0  0  0  0  0  0  0  0  0  0  0
   -5.7464   -1.2998    0.0490 C   0  0  0  0  0  0  0  0  0  0  0  0
   -7.1014   -0.9353    0.1921 C   0  0  0  0  0  0  0  0  0  0  0  0
   -7.4706    0.3819    0.2833 C   0  0  0  0  0  0  0  0  0  0  0  0
   -9.7715   -0.1222    0.4568 C   0  0  0  0  0  0  0  0  0  0  0  0
    0.1457    0.5545   -0.4574 C   0  0  0  0  0  0  0  0  0  0  0  0
    1.4204    0.0326   -0.2946 C   0  0  0  0  0  0  0  0  0  0  0  0
    2.5242    0.8771   -0.3582 C   0  0  0  0  0  0  0  0  0  0  0  0
    2.3030    2.2333   -0.5906 C   0  0  0  0  0  0  0  0  0  0  0  0
    0.0392    1.9272   -0.7028 C   0  0  0  0  0  0  0  0  0  0  0  0
    4.8810    1.1492   -0.1668 C   0  0  0  0  0  0  0  0  0  0  0  0
    6.0946    0.2673    0.1073 C   0  0  1  0  0  0  0  0  0  0  0  0
    7.3476    1.1501    0.1239 C   0  0  0  0  0  0  0  0  0  0  0  0
    8.6194    0.3517    0.1338 C   0  0  0  0  0  0  0  0  0  0  0  0
    9.1919   -0.0714   -1.0640 C   0  0  0  0  0  0  0  0  0  0  0  0
   10.3562   -0.8283   -1.0727 C   0  0  0  0  0  0  0  0  0  0  0  0
   10.9697   -1.1749    0.1240 C   0  0  0  0  0  0  0  0  0  0  0  0
   10.4095   -0.7575    1.3247 C   0  0  0  0  0  0  0  0  0  0  0  0
    9.2431   -0.0040    1.3270 C   0  0  0  0  0  0  0  0  0  0  0  0
   -6.5729    4.6311    0.4193 H   0  0  0  0  0  0  0  0  0  0  0  0
   -5.2828    3.6456    1.1348 H   0  0  0  0  0  0  0  0  0  0  0  0
   -5.4511    3.7494   -0.6329 H   0  0  0  0  0  0  0  0  0  0  0  0
   -4.3959    1.8215    0.0545 H   0  0  0  0  0  0  0  0  0  0  0  0
   -0.4963   -4.0408   -0.7152 H   0  0  0  0  0  0  0  0  0  0  0  0
   -2.1269   -4.5223   -0.6645 H   0  0  0  0  0  0  0  0  0  0  0  0
    5.1828   -1.0834    1.3222 H   0  0  0  0  0  0  0  0  0  0  0  0
   -2.4632    1.2434   -0.1192 H   0  0  0  0  0  0  0  0  0  0  0  0
   -4.0540   -4.0626   -0.2285 H   0  0  0  0  0  0  0  0  0  0  0  0
   -7.8298   -1.7337    0.2236 H   0  0  0  0  0  0  0  0  0  0  0  0
  -10.6947    0.4412    0.5621 H   0  0  0  0  0  0  0  0  0  0  0  0
   -9.8180   -0.7101   -0.4629 H   0  0  0  0  0  0  0  0  0  0  0  0
   -9.6700   -0.8008    1.3072 H   0  0  0  0  0  0  0  0  0  0  0  0
    1.5587   -1.0260   -0.1159 H   0  0  0  0  0  0  0  0  0  0  0  0
    3.1197    2.9424   -0.6476 H   0  0  0  0  0  0  0  0  0  0  0  0
   -0.9246    2.3914   -0.8754 H   0  0  0  0  0  0  0  0  0  0  0  0
    4.9968    1.6681   -1.1252 H   0  0  0  0  0  0  0  0  0  0  0  0
    4.7815    1.9094    0.6191 H   0  0  0  0  0  0  0  0  0  0  0  0
    6.1892   -0.4396   -0.7252 H   0  0  0  0  0  0  0  0  0  0  0  0
    7.3337    1.8021   -0.7534 H   0  0  0  0  0  0  0  0  0  0  0  0
    7.3064    1.8057    0.9996 H   0  0  0  0  0  0  0  0  0  0  0  0
    8.7236    0.1986   -2.0038 H   0  0  0  0  0  0  0  0  0  0  0  0
   10.7873   -1.1407   -2.0154 H   0  0  0  0  0  0  0  0  0  0  0  0
   11.8795   -1.7615    0.1211 H   0  0  0  0  0  0  0  0  0  0  0  0
   10.8821   -1.0181    2.2633 H   0  0  0  0  0  0  0  0  0  0  0  0
    8.8163    0.3170    2.2691 H   0  0  0  0  0  0  0  0  0  0  0  0
   -8.7236    0.8290    0.4168 O   0  0  0  0  0  0  0  0  0  0  0  0
   -1.4436   -3.8150   -0.4620 N   0  0  0  0  0  0  0  0  0  0  0  0
    5.9143    0.1185    2.1265 H   0  0  0  0  0  0  0  0  0  0  0  0
  1  3  1  0
  2 13  2  0
  2 14  1  0
  3  4  1  0
  4  6  1  0
  4 19  2  0
  5 16  2  0
  5 17  1  0
 61 19  1  0
 61 20  1  0
  6  8  2  0
 62 14  1  0
  7 23  1  0
  7 26  1  0
  8 10  1  0
  8 17  1  0
  9 24  2  0
  9 25  1  0
 10 12  2  0
 10 15  1  0
 11 27  1  0
 12 13  1  0
 13 21  1  0
 14 15  2  0
 15 16  1  0
 17 18  2  0
 18 19  1  0
 21 22  1  0
 21 25  2  0
 22 23  2  0
 23 24  1  0
 26 27  1  0
 27 28  1  0
 28 29  1  0
 29 30  2  0
 29 34  1  0
 30 31  1  0
 31 32  2  0
 32 33  1  0
 33 34  2  0
  1 35  1  0
  1 36  1  0
  1 37  1  0
  6 38  1  0
 62 39  1  0
 62 40  1  0
 11 63  1  0
 11 41  1  0
 12 42  1  0
 16 43  1  0
 18 44  1  0
 20 45  1  0
 20 46  1  0
 20 47  1  0
 22 48  1  0
 24 49  1  0
 25 50  1  0
 26 51  1  0
 26 52  1  0
 27 53  1  6
 28 54  1  0
 28 55  1  0
 30 56  1  0
 31 57  1  0
 32 58  1  0
 33 59  1  0
 34 60  1  0
M  END
