
     RDKit          3D

 31 33  0  0  0  0  0  0  0  0999 V2000
   -3.9819   -2.0671   -1.2009 O   0  0  0  0  0  0  0  0  0  0  0  0
   -3.4630   -1.0700   -0.7491 C   0  0  0  0  0  0  0  0  0  0  0  0
   -4.1653    0.0158   -0.2148 N   0  0  0  0  0  0  0  0  0  0  0  0
   -5.6064    0.0628   -0.1477 C   0  0  0  0  0  0  0  0  0  0  0  0
   -3.3257    1.0049    0.1961 C   0  0  0  0  0  0  0  0  0  0  0  0
   -3.6435    2.0612    0.6913 O   0  0  0  0  0  0  0  0  0  0  0  0
   -2.1555   -0.7705   -0.6527 N   0  0  0  0  0  0  0  0  0  0  0  0
   -1.9130    0.5184   -0.0653 C   0  0  2  0  0  0  0  0  0  0  0  0
   -1.0817    0.4573    1.2223 C   0  0  0  0  0  0  0  0  0  0  0  0
    0.2763   -0.1038    0.9740 C   0  0  0  0  0  0  0  0  0  0  0  0
    1.3803    0.5689    0.3559 C   0  0  0  0  0  0  0  0  0  0  0  0
    0.7030   -1.3744    1.2393 C   0  0  0  0  0  0  0  0  0  0  0  0
    1.9981   -1.5316    0.8335 N   0  0  0  0  0  0  0  0  0  0  0  0
    2.4372   -0.3647    0.2916 C   0  0  0  0  0  0  0  0  0  0  0  0
    3.6689   -0.0161   -0.2535 C   0  0  0  0  0  0  0  0  0  0  0  0
    4.9374   -1.1934   -0.3076 Cl  0  0  0  0  0  0  0  0  0  0  0  0
    3.8506    1.2615   -0.7371 C   0  0  0  0  0  0  0  0  0  0  0  0
    2.8029    2.1940   -0.6754 C   0  0  0  0  0  0  0  0  0  0  0  0
    1.5756    1.8637   -0.1367 C   0  0  0  0  0  0  0  0  0  0  0  0
   -6.0371    0.3353   -1.1102 H   0  0  0  0  0  0  0  0  0  0  0  0
   -5.9957   -0.9061    0.1535 H   0  0  0  0  0  0  0  0  0  0  0  0
   -5.9010    0.8021    0.5916 H   0  0  0  0  0  0  0  0  0  0  0  0
   -1.4309   -1.3847   -0.9863 H   0  0  0  0  0  0  0  0  0  0  0  0
   -1.4354    1.1949   -0.7819 H   0  0  0  0  0  0  0  0  0  0  0  0
   -1.0123    1.4687    1.6300 H   0  0  0  0  0  0  0  0  0  0  0  0
   -1.6110   -0.1503    1.9595 H   0  0  0  0  0  0  0  0  0  0  0  0
    0.1722   -2.1919    1.7015 H   0  0  0  0  0  0  0  0  0  0  0  0
    2.5361   -2.3764    0.9341 H   0  0  0  0  0  0  0  0  0  0  0  0
    4.8029    1.5464   -1.1634 H   0  0  0  0  0  0  0  0  0  0  0  0
    2.9735    3.1906   -1.0605 H   0  0  0  0  0  0  0  0  0  0  0  0
    0.7815    2.5985   -0.0945 H   0  0  0  0  0  0  0  0  0  0  0  0
  4  3  1  0
 16 15  1  0
  3  5  1  0
  3  2  1  0
 13 12  1  0
 13 14  1  0
  6  5  2  0
 12 10  2  0
  1  2  2  0
  5  8  1  0
 15 14  2  0
 15 17  1  0
 14 11  1  0
  2  7  1  0
 10 11  1  0
 10  9  1  0
 17 18  2  0
 11 19  2  0
  8  7  1  0
  8  9  1  0
 18 19  1  0
  4 20  1  0
  4 21  1  0
  4 22  1  0
  7 23  1  0
  8 24  1  6
  9 25  1  0
  9 26  1  0
 12 27  1  0
 13 28  1  0
 17 29  1  0
 18 30  1  0
 19 31  1  0
M  END
