
     RDKit          3D

 26 27  0  0  0  0  0  0  0  0999 V2000
   -1.0761   -1.7152   -0.9963 C   0  0  0  0  0  0  0  0  0  0  0  0
   -3.3797    0.8918    0.2014 C   0  0  0  0  0  0  0  0  0  0  0  0
   -2.9040   -0.2249   -0.4590 C   0  0  0  0  0  0  0  0  0  0  0  0
   -2.4496    1.6919    0.8470 C   0  0  0  0  0  0  0  0  0  0  0  0
   -1.5350   -0.4733   -0.4810 C   0  0  0  0  0  0  0  0  0  0  0  0
   -0.6532    0.4553    0.1290 C   0  0  0  0  0  0  0  0  0  0  0  0
    2.6957   -0.6870   -0.9303 C   0  0  0  0  0  0  0  0  0  0  0  0
    2.8355    0.2819    1.2519 C   0  0  0  0  0  0  0  0  0  0  0  0
    1.3914    0.0565   -1.1756 C   0  0  0  0  0  0  0  0  0  0  0  0
    1.5274    1.0346    1.0303 C   0  0  0  0  0  0  0  0  0  0  0  0
   -0.7344   -2.7450   -1.3882 N   0  0  0  0  0  0  0  0  0  0  0  0
   -1.1415    1.4915    0.8047 N   0  0  0  0  0  0  0  0  0  0  0  0
    3.5597   -0.0225    0.0299 N   0  0  0  0  0  0  0  0  0  0  0  0
    0.7024    0.2864    0.0930 N   0  0  0  0  0  0  0  0  0  0  0  0
   -4.4346    1.1180    0.2450 H   0  0  0  0  0  0  0  0  0  0  0  0
   -3.5825   -0.9243   -0.9292 H   0  0  0  0  0  0  0  0  0  0  0  0
   -2.7794    2.5497    1.4225 H   0  0  0  0  0  0  0  0  0  0  0  0
    2.4689   -1.6923   -0.5620 H   0  0  0  0  0  0  0  0  0  0  0  0
    3.2284   -0.8003   -1.8759 H   0  0  0  0  0  0  0  0  0  0  0  0
    3.4766    0.8688    1.9120 H   0  0  0  0  0  0  0  0  0  0  0  0
    2.6161   -0.6585    1.7666 H   0  0  0  0  0  0  0  0  0  0  0  0
    1.6067    1.0262   -1.6469 H   0  0  0  0  0  0  0  0  0  0  0  0
    0.7706   -0.5023   -1.8718 H   0  0  0  0  0  0  0  0  0  0  0  0
    0.9999    1.1431    1.9759 H   0  0  0  0  0  0  0  0  0  0  0  0
    1.7346    2.0449    0.6516 H   0  0  0  0  0  0  0  0  0  0  0  0
    3.8987    0.8424   -0.3770 H   0  0  0  0  0  0  0  0  0  0  0  0
 13  8  1  0
 13  7  1  0
  8 10  1  0
  7  9  1  0
 10 14  1  0
  9 14  1  0
 11  1  3  0
 14  6  1  0
  1  5  1  0
  6  5  2  0
  6 12  1  0
  5  3  1  0
 12  4  2  0
  3  2  2  0
  4  2  1  0
  2 15  1  0
  3 16  1  0
  4 17  1  0
  7 18  1  0
  7 19  1  0
  8 20  1  0
  8 21  1  0
  9 22  1  0
  9 23  1  0
 10 24  1  0
 10 25  1  0
 13 26  1  0
M  END
