
     RDKit          3D

 42 44  0  0  0  0  0  0  0  0999 V2000
    3.4447   -2.4183    0.4116 C   0  0  0  0  0  0  0  0  0  0  0  0
    2.0908   -2.3496    0.1103 C   0  0  0  0  0  0  0  0  0  0  0  0
    1.5121   -1.1393   -0.2758 C   0  0  0  0  0  0  0  0  0  0  0  0
    2.3023    0.0079   -0.3640 C   0  0  0  0  0  0  0  0  0  0  0  0
    3.6526   -0.0478   -0.0432 C   0  0  0  0  0  0  0  0  0  0  0  0
    4.2083   -1.2628    0.3431 C   0  0  0  0  0  0  0  0  0  0  0  0
    5.6771   -1.1015    0.6353 C   0  0  0  0  0  0  0  0  0  0  0  0
    4.8349    1.0584   -0.0526 B   0  0  2  0  0  0  0  0  0  0  0  0
    4.5148    2.1861    0.8230 O   0  0  0  0  0  0  0  0  0  0  0  0
   -5.3790   -2.5337    0.5431 C   0  0  0  0  0  0  0  0  0  0  0  0
   -5.4790    0.2795    0.4471 C   0  0  0  0  0  0  0  0  0  0  0  0
   -4.3295   -0.4400    0.1519 C   0  0  0  0  0  0  0  0  0  0  0  0
   -5.4825    1.6662    0.3462 C   0  0  0  0  0  0  0  0  0  0  0  0
   -4.3536    2.3600   -0.0660 C   0  0  0  0  0  0  0  0  0  0  0  0
   -3.2112    1.6275   -0.3834 C   0  0  0  0  0  0  0  0  0  0  0  0
   -3.1768    0.2446   -0.2700 C   0  0  0  0  0  0  0  0  0  0  0  0
   -0.4726    0.8109    0.3865 O   0  0  0  0  0  0  0  0  0  0  0  0
    0.1452   -1.1435   -0.6162 N   0  0  0  0  0  0  0  0  0  0  0  0
   -2.0452   -0.5083   -0.6078 N   0  0  0  0  0  0  0  0  0  0  0  0
   -0.7646   -0.2028   -0.2230 C   0  0  0  0  0  0  0  0  0  0  0  0
   -4.3495    3.8588   -0.1624 C   0  0  0  0  0  0  0  0  0  0  0  0
    5.1238    1.4645   -1.4351 O   0  0  0  0  0  0  0  0  0  0  0  0
    5.9735    0.2565    0.5192 O   0  0  0  0  0  0  0  0  0  0  0  0
    3.8790   -3.3677    0.7057 H   0  0  0  0  0  0  0  0  0  0  0  0
    1.4745   -3.2391    0.1775 H   0  0  0  0  0  0  0  0  0  0  0  0
    1.8596    0.9383   -0.6959 H   0  0  0  0  0  0  0  0  0  0  0  0
    5.9201   -1.4801    1.6402 H   0  0  0  0  0  0  0  0  0  0  0  0
    6.2725   -1.7172   -0.0598 H   0  0  0  0  0  0  0  0  0  0  0  0
    5.2533    2.7993    0.8820 H   0  0  0  0  0  0  0  0  0  0  0  0
   -5.7554   -2.3002    1.5424 H   0  0  0  0  0  0  0  0  0  0  0  0
   -6.1809   -2.3711   -0.1815 H   0  0  0  0  0  0  0  0  0  0  0  0
   -5.0849   -3.5799    0.5155 H   0  0  0  0  0  0  0  0  0  0  0  0
   -6.3809   -0.2230    0.7690 H   0  0  0  0  0  0  0  0  0  0  0  0
   -6.3896    2.2053    0.5914 H   0  0  0  0  0  0  0  0  0  0  0  0
   -2.3333    2.1472   -0.7415 H   0  0  0  0  0  0  0  0  0  0  0  0
   -0.2100   -2.0204   -0.9651 H   0  0  0  0  0  0  0  0  0  0  0  0
   -2.2229   -1.4340   -0.9666 H   0  0  0  0  0  0  0  0  0  0  0  0
   -4.0223    4.3160    0.7741 H   0  0  0  0  0  0  0  0  0  0  0  0
   -3.6735    4.2075   -0.9432 H   0  0  0  0  0  0  0  0  0  0  0  0
   -5.3436    4.2477   -0.3819 H   0  0  0  0  0  0  0  0  0  0  0  0
    5.9188    2.0048   -1.4753 H   0  0  0  0  0  0  0  0  0  0  0  0
   -4.2240   -1.7836    0.2250 O   0  0  0  0  0  0  0  0  0  0  0  0
 10 42  1  0
 42 12  1  0
 11 12  2  0
 11 13  1  0
 12 16  1  0
 13 14  2  0
 16 19  1  0
 16 15  2  0
 14 15  1  0
 14 21  1  0
 19 20  1  0
 20 18  1  0
 20 17  2  0
 18  3  1  0
  3  2  1  0
  3  4  2  0
  2  1  2  0
  4  5  1  0
  1  6  1  0
  5  6  2  0
  5  8  1  0
  8 22  1  6
  6  7  1  0
 23  7  1  0
 23  8  1  0
  8  9  1  0
  1 24  1  0
  2 25  1  0
  4 26  1  0
  7 27  1  0
  7 28  1  0
  9 29  1  0
 10 30  1  0
 10 31  1  0
 10 32  1  0
 11 33  1  0
 13 34  1  0
 15 35  1  0
 18 36  1  0
 19 37  1  0
 21 38  1  0
 21 39  1  0
 21 40  1  0
 22 41  1  0
M  CHG  1   8  -1
M  END
