
     RDKit          3D

 32 33  0  0  0  0  0  0  0  0999 V2000
    1.3141   -2.0813   -0.1448 O   0  0  0  0  0  0  0  0  0  0  0  0
    1.3359   -0.8417   -0.1401 C   0  0  0  0  0  0  0  0  0  0  0  0
    2.6152   -0.1343   -0.1423 C   0  0  0  0  0  0  0  0  0  0  0  0
    3.8168   -0.8847   -0.1104 C   0  0  0  0  0  0  0  0  0  0  0  0
    3.8175   -2.2093   -0.0957 O   0  0  0  0  0  0  0  0  0  0  0  0
    5.0496   -0.2365   -0.0873 C   0  0  0  0  0  0  0  0  0  0  0  0
    5.1138    1.1463   -0.1035 C   0  0  0  0  0  0  0  0  0  0  0  0
    6.2739    1.8126   -0.0761 O   0  0  0  0  0  0  0  0  0  0  0  0
    3.9394    1.9088   -0.1491 C   0  0  0  0  0  0  0  0  0  0  0  0
    2.7294    1.2647   -0.1645 C   0  0  0  0  0  0  0  0  0  0  0  0
    0.0804   -0.0870   -0.1183 C   0  0  0  0  0  0  0  0  0  0  0  0
   -1.1062   -0.7134   -0.0882 C   0  0  0  0  0  0  0  0  0  0  0  0
   -2.4199   -0.0987   -0.0492 C   0  0  0  0  0  0  0  0  0  0  0  0
   -3.5441   -0.9313    0.0088 C   0  0  0  0  0  0  0  0  0  0  0  0
   -4.8201   -0.4101    0.0564 C   0  0  0  0  0  0  0  0  0  0  0  0
   -5.9525   -1.1540    0.1178 O   0  0  0  0  0  0  0  0  0  0  0  0
   -2.6261    1.2813   -0.0614 C   0  0  0  0  0  0  0  0  0  0  0  0
   -3.9013    1.8098   -0.0156 C   0  0  0  0  0  0  0  0  0  0  0  0
   -5.0110    0.9774    0.0444 C   0  0  0  0  0  0  0  0  0  0  0  0
   -6.2364    1.5186    0.0887 O   0  0  0  0  0  0  0  0  0  0  0  0
    2.8649   -2.4911   -0.1134 H   0  0  0  0  0  0  0  0  0  0  0  0
    5.9487   -0.8409   -0.0447 H   0  0  0  0  0  0  0  0  0  0  0  0
    7.0151    1.2021   -0.0264 H   0  0  0  0  0  0  0  0  0  0  0  0
    3.9978    2.9879   -0.1657 H   0  0  0  0  0  0  0  0  0  0  0  0
    1.8420    1.8795   -0.1961 H   0  0  0  0  0  0  0  0  0  0  0  0
    0.1230    0.9920   -0.1137 H   0  0  0  0  0  0  0  0  0  0  0  0
   -1.0972   -1.7992   -0.0870 H   0  0  0  0  0  0  0  0  0  0  0  0
   -3.4049   -2.0077    0.0186 H   0  0  0  0  0  0  0  0  0  0  0  0
   -5.7495   -2.0925    0.1258 H   0  0  0  0  0  0  0  0  0  0  0  0
   -1.7880    1.9622   -0.1066 H   0  0  0  0  0  0  0  0  0  0  0  0
   -4.0532    2.8810   -0.0257 H   0  0  0  0  0  0  0  0  0  0  0  0
   -6.9051    0.8276    0.1411 H   0  0  0  0  0  0  0  0  0  0  0  0
 20 19  1  0
 18 19  2  0
 18 17  1  0
 19 15  1  0
 17 13  2  0
 15 16  1  0
 15 14  2  0
 13 14  1  0
 13 12  1  0
  9 10  2  0
  9  7  1  0
 10  3  1  0
 11 12  2  0
 11  2  1  0
  8  7  1  0
  7  6  2  0
  3  2  1  0
  3  4  2  0
  2  1  2  0
  6  4  1  0
  4  5  1  0
  5 21  1  0
  6 22  1  0
  8 23  1  0
  9 24  1  0
 10 25  1  0
 11 26  1  0
 12 27  1  0
 14 28  1  0
 16 29  1  0
 17 30  1  0
 18 31  1  0
 20 32  1  0
M  END
