
     RDKit          3D

 32 32  0  0  0  0  0  0  0  0999 V2000
   -4.3791    1.2949   -0.2714 C   0  0  0  0  0  0  0  0  0  0  0  0
   -3.5762    0.2623    0.4517 C   0  0  0  0  0  0  0  0  0  0  0  0
   -2.3334   -0.1483   -0.3434 C   0  0  0  0  0  0  0  0  0  0  0  0
   -0.6314   -0.4019    1.3801 C   0  0  0  0  0  0  0  0  0  0  0  0
    0.6038    0.2228    0.7412 C   0  0  0  0  0  0  0  0  0  0  0  0
    2.5495   -0.2390   -0.6149 C   0  0  0  0  0  0  0  0  0  0  0  0
    3.5909    0.2041    0.4111 C   0  0  0  0  0  0  0  0  0  0  0  0
    4.9254    0.4133   -0.2352 C   0  0  0  0  0  0  0  0  0  0  0  0
    0.4996   -1.3942   -1.0123 C   0  0  0  0  0  0  0  0  0  0  0  0
   -0.7352   -2.0026   -0.3629 C   0  0  0  0  0  0  0  0  0  0  0  0
   -1.5079   -1.0614    0.4278 N   0  0  0  0  0  0  0  0  0  0  0  0
    1.3490   -0.7740   -0.0088 N   0  0  0  0  0  0  0  0  0  0  0  0
   -5.5619    1.2245   -0.4999 O   0  0  0  0  0  0  0  0  0  0  0  0
    5.6252    1.3837   -0.0843 O   0  0  0  0  0  0  0  0  0  0  0  0
   -3.7993    2.1801   -0.5921 H   0  0  0  0  0  0  0  0  0  0  0  0
   -3.2643    0.7256    1.3959 H   0  0  0  0  0  0  0  0  0  0  0  0
   -4.1893   -0.6071    0.6904 H   0  0  0  0  0  0  0  0  0  0  0  0
   -2.6503   -0.6574   -1.2559 H   0  0  0  0  0  0  0  0  0  0  0  0
   -1.7976    0.7546   -0.6708 H   0  0  0  0  0  0  0  0  0  0  0  0
   -0.3088   -1.1401    2.1214 H   0  0  0  0  0  0  0  0  0  0  0  0
   -1.1831    0.3645    1.9282 H   0  0  0  0  0  0  0  0  0  0  0  0
    0.3127    1.0751    0.1015 H   0  0  0  0  0  0  0  0  0  0  0  0
    1.2283    0.6307    1.5383 H   0  0  0  0  0  0  0  0  0  0  0  0
    2.3284    0.5984   -1.2981 H   0  0  0  0  0  0  0  0  0  0  0  0
    2.9881   -1.0306   -1.2305 H   0  0  0  0  0  0  0  0  0  0  0  0
    3.3010    1.1072    0.9479 H   0  0  0  0  0  0  0  0  0  0  0  0
    3.7152   -0.6029    1.1433 H   0  0  0  0  0  0  0  0  0  0  0  0
    5.2555   -0.4227   -0.8799 H   0  0  0  0  0  0  0  0  0  0  0  0
    1.0637   -2.1851   -1.5137 H   0  0  0  0  0  0  0  0  0  0  0  0
    0.2002   -0.6755   -1.7960 H   0  0  0  0  0  0  0  0  0  0  0  0
   -1.3745   -2.4459   -1.1286 H   0  0  0  0  0  0  0  0  0  0  0  0
   -0.4165   -2.8175    0.2960 H   0  0  0  0  0  0  0  0  0  0  0  0
  6  7  1  0
  6 12  1  0
  7  8  1  0
 12  9  1  0
 12  5  1  0
  8 14  2  0
  9 10  1  0
  5  4  1  0
 10 11  1  0
 11  4  1  0
 11  3  1  0
  2  3  1  0
  2  1  1  0
  1 13  2  0
  1 15  1  0
  2 16  1  0
  2 17  1  0
  3 18  1  0
  3 19  1  0
  4 20  1  0
  4 21  1  0
  5 22  1  0
  5 23  1  0
  6 24  1  0
  6 25  1  0
  7 26  1  0
  7 27  1  0
  8 28  1  0
  9 29  1  0
  9 30  1  0
 10 31  1  0
 10 32  1  0
M  END
