
     RDKit          3D

 23 22  0  0  0  0  0  0  0  0999 V2000
   -2.1956    0.6987   -0.2659 C   0  0  0  0  0  0  0  0  0  0  0  0
    3.2047    0.2529    0.5832 C   0  0  0  0  0  0  0  0  0  0  0  0
    2.4783   -0.4921   -0.5324 C   0  0  0  0  0  0  0  0  0  0  0  0
    1.0705   -0.8103   -0.1353 C   0  0  0  0  0  0  0  0  0  0  0  0
   -0.0018   -0.3392   -0.7617 C   0  0  0  0  0  0  0  0  0  0  0  0
   -1.4300   -0.6178   -0.3883 C   0  0  1  0  0  0  0  0  0  0  0  0
   -3.6744    0.4922   -0.0770 C   0  0  0  0  0  0  0  0  0  0  0  0
   -1.5719   -1.3992    0.7703 O   0  0  0  0  0  0  0  0  0  0  0  0
   -4.2999   -0.4410   -0.5143 O   0  0  0  0  0  0  0  0  0  0  0  0
    4.9118    0.6067    0.0439 S   0  0  0  0  0  0  0  0  0  0  0  0
   -1.7858    1.3073    0.5441 H   0  0  0  0  0  0  0  0  0  0  0  0
   -2.0697    1.2891   -1.1798 H   0  0  0  0  0  0  0  0  0  0  0  0
    2.6925    1.1878    0.8093 H   0  0  0  0  0  0  0  0  0  0  0  0
    3.2316   -0.3514    1.4902 H   0  0  0  0  0  0  0  0  0  0  0  0
    2.4858    0.1075   -1.4458 H   0  0  0  0  0  0  0  0  0  0  0  0
    3.0173   -1.4191   -0.7512 H   0  0  0  0  0  0  0  0  0  0  0  0
    0.9555   -1.4658    0.7239 H   0  0  0  0  0  0  0  0  0  0  0  0
    0.1285    0.3087   -1.6253 H   0  0  0  0  0  0  0  0  0  0  0  0
   -1.8846   -1.2003   -1.1965 H   0  0  0  0  0  0  0  0  0  0  0  0
    5.3402    1.1930    1.1668 H   0  0  0  0  0  0  0  0  0  0  0  0
   -1.1585   -0.9330    1.5060 H   0  0  0  0  0  0  0  0  0  0  0  0
   -4.2351    1.4870    0.6014 O   0  0  0  0  0  0  0  0  0  0  0  0
   -5.1919    1.3457    0.6625 H   0  0  0  0  0  0  0  0  0  0  0  0
  1  6  1  0
  1 11  1  0
  1 12  1  0
  2 10  1  0
  2  3  1  0
  2 13  1  0
  2 14  1  0
  3 15  1  0
  3 16  1  0
  4  3  1  0
  4 17  1  0
  5  4  2  0
  5 18  1  0
  6  5  1  0
  6  8  1  0
  6 19  1  6
  7  1  1  0
  7  9  2  0
  8 21  1  0
 10 20  1  0
  7 22  1  0
 22 23  1  0
M  END
