
     RDKit          3D

 16 15  0  0  0  0  0  0  0  0999 V2000
   -1.6462    0.9054   -0.0738 C   0  0  0  0  0  0  0  0  0  0  0  0
   -0.3270    0.6576   -0.0533 C   0  0  0  0  0  0  0  0  0  0  0  0
    0.3137   -0.6437    0.0054 C   0  0  0  0  0  0  0  0  0  0  0  0
    2.7233    0.1043    0.0015 C   0  0  0  0  0  0  0  0  0  0  0  0
    2.6012    1.3066   -0.0279 O   0  0  0  0  0  0  0  0  0  0  0  0
    3.9060   -0.5009    0.0139 O   0  0  0  0  0  0  0  0  0  0  0  0
    1.6328   -0.8915    0.0289 C   0  0  0  0  0  0  0  0  0  0  0  0
   -2.7366   -0.0905   -0.0392 C   0  0  0  0  0  0  0  0  0  0  0  0
   -2.6143   -1.2926   -0.0051 O   0  0  0  0  0  0  0  0  0  0  0  0
   -3.9194    0.5147   -0.0504 O   0  0  0  0  0  0  0  0  0  0  0  0
   -1.9607    1.9407   -0.1181 H   0  0  0  0  0  0  0  0  0  0  0  0
    0.3198    1.5225   -0.0830 H   0  0  0  0  0  0  0  0  0  0  0  0
   -0.3333   -1.5086    0.0312 H   0  0  0  0  0  0  0  0  0  0  0  0
    4.6156    0.1584   -0.0073 H   0  0  0  0  0  0  0  0  0  0  0  0
    1.9470   -1.9271    0.0712 H   0  0  0  0  0  0  0  0  0  0  0  0
   -4.6293   -0.1442   -0.0228 H   0  0  0  0  0  0  0  0  0  0  0  0
  1  2  2  0
  1  8  1  0
  1 11  1  0
  2  3  1  0
  2 12  1  0
  3  7  2  0
  3 13  1  0
  4  5  2  0
  4  6  1  0
  4  7  1  0
  6 14  1  0
  7 15  1  0
  8  9  2  0
  8 10  1  0
 10 16  1  0
M  END
