
     RDKit          3D

 19 18  0  0  0  0  0  0  0  0999 V2000
   -2.0543    0.1687    0.0674 P   0  0  2  0  0  0  0  0  0  0  0  0
   -2.0110    1.0887    1.2223 O   0  0  0  0  0  0  0  0  0  0  0  0
   -2.1250    0.9997   -1.2957 O   0  0  0  0  0  0  0  0  0  0  0  0
   -3.1560   -0.9766    0.0229 O   0  0  0  0  0  0  0  0  0  0  0  0
    4.2119   -0.6379   -0.0504 O   0  0  0  0  0  0  0  0  0  0  0  0
    3.0243    1.2491    0.1945 O   0  0  0  0  0  0  0  0  0  0  0  0
   -0.5645   -0.8799   -0.0552 C   0  0  0  0  0  0  0  0  0  0  0  0
    1.8978   -0.8445   -0.0648 C   0  0  0  0  0  0  0  0  0  0  0  0
    3.1025    0.0592    0.0436 C   0  0  0  0  0  0  0  0  0  0  0  0
    0.6570   -0.0392   -0.0011 N   0  0  0  0  0  0  0  0  0  0  0  0
   -2.2648    0.4948   -2.1089 H   0  0  0  0  0  0  0  0  0  0  0  0
   -4.0711   -0.6854    0.1487 H   0  0  0  0  0  0  0  0  0  0  0  0
    4.9891   -0.0615    0.0216 H   0  0  0  0  0  0  0  0  0  0  0  0
   -0.5457   -1.4539   -0.9799 H   0  0  0  0  0  0  0  0  0  0  0  0
   -0.5332   -1.5690    0.7875 H   0  0  0  0  0  0  0  0  0  0  0  0
    1.9038   -1.3904   -1.0078 H   0  0  0  0  0  0  0  0  0  0  0  0
    1.8823   -1.5637    0.7535 H   0  0  0  0  0  0  0  0  0  0  0  0
    0.6544    0.6352   -0.7705 H   0  0  0  0  0  0  0  0  0  0  0  0
    0.6527    0.5200    0.8567 H   0  0  0  0  0  0  0  0  0  0  0  0
  1  2  2  0
  1  3  1  6
  1  4  1  0
  1  7  1  0
  3 11  1  0
  4 12  1  0
  5  9  1  0
  5 13  1  0
  6  9  2  0
  7 10  1  0
  7 14  1  0
  7 15  1  0
  8  9  1  0
  8 10  1  0
  8 16  1  0
  8 17  1  0
 10 18  1  0
 10 19  1  0
M  CHG  1  10   1
M  END
