
     RDKit          3D

 50 52  0  0  0  0  0  0  0  0999 V2000
   -6.0563   -3.1780   -1.6283 O   0  0  0  0  0  0  0  0  0  0  0  0
   -6.5671   -2.0943   -1.3835 C   0  0  0  0  0  0  0  0  0  0  0  0
   -7.7464   -1.7094   -1.8914 N   0  0  0  0  0  0  0  0  0  0  0  0
   -5.8888   -1.1144   -0.4773 C   0  0  0  0  0  0  0  0  0  0  0  0
   -6.5784   -0.1314    0.2258 C   0  0  0  0  0  0  0  0  0  0  0  0
   -5.8982    0.7338    1.0651 C   0  0  0  0  0  0  0  0  0  0  0  0
   -4.5217    0.6294    1.1911 C   0  0  0  0  0  0  0  0  0  0  0  0
   -3.7172    1.7146    2.2713 Cl  0  0  0  0  0  0  0  0  0  0  0  0
   -4.5121   -1.2163   -0.3174 C   0  0  0  0  0  0  0  0  0  0  0  0
   -3.7997   -0.3424    0.4976 C   0  0  0  0  0  0  0  0  0  0  0  0
   -2.3304   -0.4829    0.5985 C   0  0  0  0  0  0  0  0  0  0  0  0
   -1.5006    0.5691    0.2137 C   0  0  0  0  0  0  0  0  0  0  0  0
   -0.1214    0.4252    0.2644 C   0  0  0  0  0  0  0  0  0  0  0  0
    0.7528    1.3796   -0.1056 O   0  0  0  0  0  0  0  0  0  0  0  0
    0.2602    2.6651   -0.3789 C   0  0  0  0  0  0  0  0  0  0  0  0
    1.4653    3.5500   -0.5972 C   0  0  1  0  0  0  0  0  0  0  0  0
    1.0728    4.8086   -0.8212 F   0  0  0  0  0  0  0  0  0  0  0  0
    2.2815    3.5620    0.4593 F   0  0  0  0  0  0  0  0  0  0  0  0
    2.1899    3.1637   -1.6523 F   0  0  0  0  0  0  0  0  0  0  0  0
    0.4355   -0.7770    0.7131 C   0  0  0  0  0  0  0  0  0  0  0  0
   -0.3944   -1.8152    1.0907 C   0  0  0  0  0  0  0  0  0  0  0  0
   -1.7743   -1.6788    1.0328 C   0  0  0  0  0  0  0  0  0  0  0  0
    1.8447   -0.9126    0.8079 N   0  0  0  0  0  0  0  0  0  0  0  0
    2.4657   -0.3819    2.0096 C   0  0  0  0  0  0  0  0  0  0  0  0
    2.5013   -1.4243   -0.2503 C   0  0  0  0  0  0  0  0  0  0  0  0
    1.9482   -1.7831   -1.2734 O   0  0  0  0  0  0  0  0  0  0  0  0
    3.9885   -1.5810   -0.1150 C   0  0  0  0  0  0  0  0  0  0  0  0
    4.8824   -0.5762   -0.4607 C   0  0  0  0  0  0  0  0  0  0  0  0
    4.2522    0.9648   -0.9175 Cl  0  0  0  0  0  0  0  0  0  0  0  0
    6.2522   -0.7802   -0.4286 C   0  0  0  0  0  0  0  0  0  0  0  0
    6.7381   -2.0221   -0.0460 C   0  0  0  0  0  0  0  0  0  0  0  0
    5.8744   -3.0494    0.3050 C   0  0  0  0  0  0  0  0  0  0  0  0
    4.5181   -2.8043    0.2569 C   0  0  0  0  0  0  0  0  0  0  0  0
    3.6592   -3.7740    0.5960 F   0  0  0  0  0  0  0  0  0  0  0  0
   -8.2298   -2.3143   -2.5355 H   0  0  0  0  0  0  0  0  0  0  0  0
   -8.0857   -0.7662   -1.8161 H   0  0  0  0  0  0  0  0  0  0  0  0
   -7.6541   -0.0376    0.1544 H   0  0  0  0  0  0  0  0  0  0  0  0
   -6.4400    1.4827    1.6259 H   0  0  0  0  0  0  0  0  0  0  0  0
   -3.9677   -1.9806   -0.8570 H   0  0  0  0  0  0  0  0  0  0  0  0
   -1.9497    1.4856   -0.1449 H   0  0  0  0  0  0  0  0  0  0  0  0
   -0.3622    2.6882   -1.2793 H   0  0  0  0  0  0  0  0  0  0  0  0
   -0.3264    3.0650    0.4553 H   0  0  0  0  0  0  0  0  0  0  0  0
    0.0460   -2.7389    1.4432 H   0  0  0  0  0  0  0  0  0  0  0  0
   -2.4106   -2.4987    1.3384 H   0  0  0  0  0  0  0  0  0  0  0  0
    1.9878   -0.8093    2.8895 H   0  0  0  0  0  0  0  0  0  0  0  0
    3.5214   -0.6351    2.0439 H   0  0  0  0  0  0  0  0  0  0  0  0
    2.3718    0.7033    2.0473 H   0  0  0  0  0  0  0  0  0  0  0  0
    6.9300    0.0175   -0.6984 H   0  0  0  0  0  0  0  0  0  0  0  0
    7.8058   -2.1901   -0.0180 H   0  0  0  0  0  0  0  0  0  0  0  0
    6.2453   -4.0184    0.6102 H   0  0  0  0  0  0  0  0  0  0  0  0
 16 17  1  6
 18 16  1  0
 16 19  1  0
 16 15  1  0
 15 14  1  0
 14 13  1  0
 34 33  1  0
 13 12  2  0
 13 20  1  0
 12 11  1  0
 33 32  2  0
 33 27  1  0
 24 23  1  0
 32 31  1  0
 23 20  1  0
 23 25  1  0
 20 21  2  0
 11 10  1  0
 11 22  2  0
  9 10  1  0
  9  4  2  0
 10  7  2  0
  1  2  2  0
  3  2  1  0
  2  4  1  0
 26 25  2  0
  4  5  1  0
 25 27  1  0
  7  8  1  0
  7  6  1  0
  5  6  2  0
 27 28  2  0
 31 30  2  0
 21 22  1  0
 28 30  1  0
 28 29  1  0
  3 35  1  0
  3 36  1  0
  5 37  1  0
  6 38  1  0
  9 39  1  0
 12 40  1  0
 15 41  1  0
 15 42  1  0
 21 43  1  0
 22 44  1  0
 24 45  1  0
 24 46  1  0
 24 47  1  0
 30 48  1  0
 31 49  1  0
 32 50  1  0
M  END
