
     RDKit          3D

 25 25  0  0  0  0  0  0  0  0999 V2000
    0.0256    0.0350   -2.8691 C   0  0  0  0  0  0  0  0  0  0  0  0
    0.0075    0.5633   -1.4569 C   0  0  0  0  0  0  0  0  0  0  0  0
    0.0066   -0.1959    0.7506 C   0  0  0  0  0  0  0  0  0  0  0  0
    1.2235   -0.0335    1.4140 C   0  0  0  0  0  0  0  0  0  0  0  0
    1.1908    0.2642    2.7739 C   0  0  0  0  0  0  0  0  0  0  0  0
   -0.0150    0.3973    3.4453 C   0  0  0  0  0  0  0  0  0  0  0  0
   -1.2098    0.2225    2.7637 C   0  0  0  0  0  0  0  0  0  0  0  0
   -1.2207   -0.0763    1.4038 C   0  0  0  0  0  0  0  0  0  0  0  0
    2.5277   -0.2009    0.6897 C   0  0  0  0  0  0  0  0  0  0  0  0
   -2.5120   -0.2898    0.6685 C   0  0  0  0  0  0  0  0  0  0  0  0
    0.0433   -1.1279   -3.1684 O   0  0  0  0  0  0  0  0  0  0  0  0
    0.0190    1.0360   -3.7379 O   0  0  0  0  0  0  0  0  0  0  0  0
    0.0173   -0.5322   -0.5793 O   0  0  0  0  0  0  0  0  0  0  0  0
   -0.8825    1.1914   -1.3272 H   0  0  0  0  0  0  0  0  0  0  0  0
    0.8765    1.2175   -1.3143 H   0  0  0  0  0  0  0  0  0  0  0  0
    2.1241    0.3908    3.3094 H   0  0  0  0  0  0  0  0  0  0  0  0
   -0.0235    0.6242    4.5035 H   0  0  0  0  0  0  0  0  0  0  0  0
   -2.1513    0.3178    3.2914 H   0  0  0  0  0  0  0  0  0  0  0  0
    2.5768   -1.1542    0.1631 H   0  0  0  0  0  0  0  0  0  0  0  0
    2.6889    0.5830   -0.0534 H   0  0  0  0  0  0  0  0  0  0  0  0
    3.3623   -0.1593    1.3878 H   0  0  0  0  0  0  0  0  0  0  0  0
   -2.6872    0.4791   -0.0866 H   0  0  0  0  0  0  0  0  0  0  0  0
   -2.5293   -1.2512    0.1546 H   0  0  0  0  0  0  0  0  0  0  0  0
   -3.3545   -0.2628    1.3578 H   0  0  0  0  0  0  0  0  0  0  0  0
    0.0284    0.6950   -4.6450 H   0  0  0  0  0  0  0  0  0  0  0  0
  1  2  1  0
  1 11  2  0
  1 12  1  0
  2 13  1  0
  2 14  1  0
  2 15  1  0
  3  4  2  0
  3  8  1  0
  3 13  1  0
  4  5  1  0
  4  9  1  0
  5  6  2  0
  5 16  1  0
  6  7  1  0
  6 17  1  0
  7  8  2  0
  7 18  1  0
  8 10  1  0
  9 19  1  0
  9 20  1  0
  9 21  1  0
 10 22  1  0
 10 23  1  0
 10 24  1  0
 12 25  1  0
M  END
