
     RDKit          3D

 73 74  0  0  0  0  0  0  0  0999 V2000
    9.5572   -1.1786    0.6414 C   0  0  0  0  0  0  0  0  0  0  0  0
    8.6366   -1.0903    1.6778 C   0  0  0  0  0  0  0  0  0  0  0  0
    7.2887   -1.3098    1.4291 C   0  0  0  0  0  0  0  0  0  0  0  0
    3.5352   -0.5289   -0.7705 C   0  0  0  0  0  0  0  0  0  0  0  0
    1.7732    1.0507   -1.3472 C   0  0  0  0  0  0  0  0  0  0  0  0
   -1.7766    1.9167    0.5428 C   0  0  2  0  0  0  0  0  0  0  0  0
   -2.9773    1.4898   -0.2960 C   0  0  0  0  0  0  0  0  0  0  0  0
   -2.0207    3.2917    1.1686 C   0  0  0  0  0  0  0  0  0  0  0  0
   -3.1694    3.3526    2.1766 C   0  0  1  0  0  0  0  0  0  0  0  0
   -2.8867    2.5053    3.4141 C   0  0  0  0  0  0  0  0  0  0  0  0
   -4.1906   -2.4429    0.0738 C   0  0  2  0  0  0  0  0  0  0  0  0
   -3.1609   -5.1137   -0.7042 C   0  0  0  0  0  0  0  0  0  0  0  0
   -3.6566   -4.8343    0.7105 C   0  0  0  0  0  0  0  0  0  0  0  0
   -4.7074   -3.7291    0.7216 C   0  0  0  0  0  0  0  0  0  0  0  0
   -6.0369    0.9531   -0.4048 C   0  0  0  0  0  0  0  0  0  0  0  0
    6.8477   -1.6206    0.1460 C   0  0  0  0  0  0  0  0  0  0  0  0
    0.8886    1.4600    0.1953 P   0  0  1  0  0  0  0  0  0  0  0  0
    0.8650    0.3945    1.2301 O   0  0  0  0  0  0  0  0  0  0  0  0
    1.6942    2.7296    0.7996 O   0  0  0  0  0  0  0  0  0  0  0  0
   -0.6180    1.9014   -0.3358 N   0  0  0  0  0  0  0  0  0  0  0  0
   -3.4307    4.8020    2.5742 C   0  0  0  0  0  0  0  0  0  0  0  0
   -3.7231    0.4955    0.2073 N   0  0  0  0  0  0  0  0  0  0  0  0
   -4.8735   -0.0233   -0.4798 C   0  0  1  0  0  0  0  0  0  0  0  0
   -6.1274    1.8594    0.3808 O   0  0  0  0  0  0  0  0  0  0  0  0
   -5.2857   -1.3767    0.1116 C   0  0  0  0  0  0  0  0  0  0  0  0
   -2.6431   -3.8376   -1.3589 C   0  0  0  0  0  0  0  0  0  0  0  0
   -3.6956   -2.7324   -1.3427 C   0  0  0  0  0  0  0  0  0  0  0  0
    7.7768   -1.7050   -0.8872 C   0  0  0  0  0  0  0  0  0  0  0  0
    9.1253   -1.4863   -0.6424 C   0  0  0  0  0  0  0  0  0  0  0  0
    4.8330   -0.5570   -0.4564 O   0  0  0  0  0  0  0  0  0  0  0  0
    2.8163   -1.5050   -0.7947 O   0  0  0  0  0  0  0  0  0  0  0  0
    3.1474    0.7257   -1.0796 N   0  0  0  0  0  0  0  0  0  0  0  0
   10.6091   -1.0131    0.8349 H   0  0  0  0  0  0  0  0  0  0  0  0
    8.9687   -0.8538    2.6802 H   0  0  0  0  0  0  0  0  0  0  0  0
    6.5742   -1.2452    2.2412 H   0  0  0  0  0  0  0  0  0  0  0  0
    1.2700    0.2118   -1.8265 H   0  0  0  0  0  0  0  0  0  0  0  0
    1.7269    1.8891   -2.0439 H   0  0  0  0  0  0  0  0  0  0  0  0
   -1.5941    1.1772    1.3257 H   0  0  0  0  0  0  0  0  0  0  0  0
   -1.0937    3.6047    1.6599 H   0  0  0  0  0  0  0  0  0  0  0  0
   -2.1989    4.0101    0.3617 H   0  0  0  0  0  0  0  0  0  0  0  0
   -4.0797    2.9716    1.7021 H   0  0  0  0  0  0  0  0  0  0  0  0
   -1.9810    2.8475    3.9208 H   0  0  0  0  0  0  0  0  0  0  0  0
   -3.7109    2.5719    4.1252 H   0  0  0  0  0  0  0  0  0  0  0  0
   -2.7505    1.4477    3.1816 H   0  0  0  0  0  0  0  0  0  0  0  0
   -3.3336   -2.0981    0.6679 H   0  0  0  0  0  0  0  0  0  0  0  0
   -2.3786   -5.8764   -0.6890 H   0  0  0  0  0  0  0  0  0  0  0  0
   -3.9824   -5.5214   -1.3034 H   0  0  0  0  0  0  0  0  0  0  0  0
   -4.0646   -5.7434    1.1587 H   0  0  0  0  0  0  0  0  0  0  0  0
   -2.8099   -4.5323    1.3369 H   0  0  0  0  0  0  0  0  0  0  0  0
   -5.0279   -3.5259    1.7474 H   0  0  0  0  0  0  0  0  0  0  0  0
   -5.5985   -4.0646    0.1776 H   0  0  0  0  0  0  0  0  0  0  0  0
    1.6801    3.5260    0.2541 H   0  0  0  0  0  0  0  0  0  0  0  0
   -0.6752    2.5511   -1.1107 H   0  0  0  0  0  0  0  0  0  0  0  0
   -3.6872    5.4129    1.7069 H   0  0  0  0  0  0  0  0  0  0  0  0
   -4.2559    4.8731    3.2848 H   0  0  0  0  0  0  0  0  0  0  0  0
   -2.5499    5.2458    3.0442 H   0  0  0  0  0  0  0  0  0  0  0  0
   -3.5083    0.1286    1.1210 H   0  0  0  0  0  0  0  0  0  0  0  0
   -4.6237   -0.1578   -1.5355 H   0  0  0  0  0  0  0  0  0  0  0  0
   -7.7222    1.2531   -1.2163 H   0  0  0  0  0  0  0  0  0  0  0  0
   -6.1561   -1.7411   -0.4393 H   0  0  0  0  0  0  0  0  0  0  0  0
   -5.6107   -1.2288    1.1469 H   0  0  0  0  0  0  0  0  0  0  0  0
   -1.7513   -3.4939   -0.8235 H   0  0  0  0  0  0  0  0  0  0  0  0
   -2.3288   -4.0369   -2.3861 H   0  0  0  0  0  0  0  0  0  0  0  0
   -4.5495   -3.0314   -1.9635 H   0  0  0  0  0  0  0  0  0  0  0  0
   -3.2796   -1.8308   -1.7997 H   0  0  0  0  0  0  0  0  0  0  0  0
    7.4446   -1.9511   -1.8889 H   0  0  0  0  0  0  0  0  0  0  0  0
    9.8396   -1.5591   -1.4520 H   0  0  0  0  0  0  0  0  0  0  0  0
    3.8087    1.4798   -0.9870 H   0  0  0  0  0  0  0  0  0  0  0  0
    5.3905   -1.8359   -0.1267 C   0  0  0  0  0  0  0  0  0  0  0  0
   -3.2232    2.0255   -1.3657 O   0  0  0  0  0  0  0  0  0  0  0  0
   -6.9641    0.6559   -1.3044 O   0  0  0  0  0  0  0  0  0  0  0  0
    5.2518   -2.5318   -0.9562 H   0  0  0  0  0  0  0  0  0  0  0  0
    4.8868   -2.2468    0.7505 H   0  0  0  0  0  0  0  0  0  0  0  0
 29 28  1  0
 29  1  2  0
 28 16  2  0
  1  2  1  0
 16 69  1  0
 16  3  1  0
  2  3  2  0
 69 30  1  0
 30  4  1  0
  4 31  2  0
  4 32  1  0
 32  5  1  0
  5 17  1  0
 18 17  2  0
 17 19  1  1
 17 20  1  0
 24 15  2  0
 71 15  1  0
 15 23  1  0
 20  6  1  0
 23 22  1  0
 23 25  1  0
 22  7  1  0
  7 70  2  0
  7  6  1  0
  6  8  1  0
 27 26  1  0
 27 11  1  0
 26 12  1  0
 25 11  1  0
 11 14  1  0
  8  9  1  0
 12 13  1  0
 21  9  1  0
  9 10  1  0
 14 13  1  0
  1 33  1  0
  2 34  1  0
  3 35  1  0
 69 72  1  0
 69 73  1  0
  5 36  1  0
  5 37  1  0
  6 38  1  1
  8 39  1  0
  8 40  1  0
  9 41  1  6
 10 42  1  0
 10 43  1  0
 10 44  1  0
 11 45  1  1
 12 46  1  0
 12 47  1  0
 13 48  1  0
 13 49  1  0
 14 50  1  0
 14 51  1  0
 19 52  1  0
 20 53  1  0
 21 54  1  0
 21 55  1  0
 21 56  1  0
 22 57  1  0
 23 58  1  6
 71 59  1  0
 25 60  1  0
 25 61  1  0
 26 62  1  0
 26 63  1  0
 27 64  1  0
 27 65  1  0
 28 66  1  0
 29 67  1  0
 32 68  1  0
M  END
