
     RDKit          3D

 40 42  0  0  0  0  0  0  0  0999 V2000
    1.6409   -0.2192   -0.5300 N   0  0  0  0  0  0  0  0  0  0  0  0
    2.7173   -0.2510    0.2655 C   0  0  0  0  0  0  0  0  0  0  0  0
    2.7453   -0.2132    1.5660 N   0  0  0  0  0  0  0  0  0  0  0  0
    1.5397   -0.1145    2.1849 C   0  0  0  0  0  0  0  0  0  0  0  0
    0.3334   -0.0585    1.4672 C   0  0  0  0  0  0  0  0  0  0  0  0
    0.4572   -0.1343    0.0411 C   0  0  0  0  0  0  0  0  0  0  0  0
    1.5099   -0.0651    3.5949 C   0  0  0  0  0  0  0  0  0  0  0  0
    0.3212    0.0462    4.2670 C   0  0  0  0  0  0  0  0  0  0  0  0
   -0.9069    0.1232    3.5360 C   0  0  0  0  0  0  0  0  0  0  0  0
   -0.8880    0.0684    2.1683 C   0  0  0  0  0  0  0  0  0  0  0  0
   -0.6629   -0.1257   -0.7223 N   0  0  0  0  0  0  0  0  0  0  0  0
   -0.8362   -0.1690   -2.1055 C   0  0  0  0  0  0  0  0  0  0  0  0
    0.1871   -0.0402   -3.0398 C   0  0  0  0  0  0  0  0  0  0  0  0
   -0.1065   -0.0723   -4.4055 C   0  0  0  0  0  0  0  0  0  0  0  0
   -1.4138   -0.2339   -4.8474 C   0  0  0  0  0  0  0  0  0  0  0  0
   -2.4279   -0.3585   -3.9046 C   0  0  0  0  0  0  0  0  0  0  0  0
   -2.1548   -0.3288   -2.5523 C   0  0  0  0  0  0  0  0  0  0  0  0
    1.2781    0.1009   -5.4807 S   0  0  0  0  0  0  0  0  0  0  0  0
    0.5446    0.1369   -7.1250 C   0  0  0  0  0  0  0  0  0  0  0  0
    0.1859    0.0967    5.5931 O   0  0  0  0  0  0  0  0  0  0  0  0
    1.3531   -0.0012    6.3904 C   0  0  0  0  0  0  0  0  0  0  0  0
   -2.0028    0.2503    4.2942 O   0  0  0  0  0  0  0  0  0  0  0  0
   -3.2565    0.3491    3.6455 C   0  0  0  0  0  0  0  0  0  0  0  0
    3.6716   -0.3210   -0.2468 H   0  0  0  0  0  0  0  0  0  0  0  0
    2.4544   -0.1170    4.1195 H   0  0  0  0  0  0  0  0  0  0  0  0
   -1.8246    0.1347    1.6314 H   0  0  0  0  0  0  0  0  0  0  0  0
   -1.5332   -0.1321   -0.2170 H   0  0  0  0  0  0  0  0  0  0  0  0
    1.2057    0.0849   -2.7084 H   0  0  0  0  0  0  0  0  0  0  0  0
   -1.6556   -0.2671   -5.9001 H   0  0  0  0  0  0  0  0  0  0  0  0
   -3.4503   -0.4845   -4.2364 H   0  0  0  0  0  0  0  0  0  0  0  0
   -2.9613   -0.4285   -1.8358 H   0  0  0  0  0  0  0  0  0  0  0  0
    1.3713    0.2866   -7.8166 H   0  0  0  0  0  0  0  0  0  0  0  0
    0.0520   -0.8018   -7.3713 H   0  0  0  0  0  0  0  0  0  0  0  0
   -0.1542    0.9642   -7.2342 H   0  0  0  0  0  0  0  0  0  0  0  0
    1.0227    0.0458    7.4244 H   0  0  0  0  0  0  0  0  0  0  0  0
    1.8750   -0.9466    6.2249 H   0  0  0  0  0  0  0  0  0  0  0  0
    2.0438    0.8233    6.1989 H   0  0  0  0  0  0  0  0  0  0  0  0
   -4.0007    0.4596    4.4294 H   0  0  0  0  0  0  0  0  0  0  0  0
   -3.3036    1.2200    2.9869 H   0  0  0  0  0  0  0  0  0  0  0  0
   -3.4836   -0.5486    3.0645 H   0  0  0  0  0  0  0  0  0  0  0  0
  1  2  2  0
  1  6  1  0
  2  3  1  0
  2 24  1  0
  3  4  2  0
  4  5  1  0
  4  7  1  0
  5  6  2  0
  5 10  1  0
  6 11  1  0
  7  8  2  0
  7 25  1  0
  8  9  1  0
  8 20  1  0
  9 10  2  0
  9 22  1  0
 10 26  1  0
 11 12  1  0
 11 27  1  0
 12 13  2  0
 12 17  1  0
 13 14  1  0
 13 28  1  0
 14 15  2  0
 14 18  1  0
 15 16  1  0
 15 29  1  0
 16 17  2  0
 16 30  1  0
 17 31  1  0
 18 19  1  0
 19 32  1  0
 19 33  1  0
 19 34  1  0
 20 21  1  0
 21 35  1  0
 21 36  1  0
 21 37  1  0
 22 23  1  0
 23 38  1  0
 23 39  1  0
 23 40  1  0
M  END
