
     RDKit          3D

 24 24  0  0  0  0  0  0  0  0999 V2000
   -1.8698    0.4108    1.2019 O   0  0  0  0  0  0  0  0  0  0  0  0
   -0.7649    0.0827    0.8274 C   0  0  0  0  0  0  0  0  0  0  0  0
    0.2188   -0.2454    1.6578 O   0  0  0  0  0  0  0  0  0  0  0  0
   -0.0378   -0.1944    3.0673 C   0  0  0  0  0  0  0  0  0  0  0  0
    1.2418   -0.5620    3.7787 C   0  0  0  0  0  0  0  0  0  0  0  0
   -0.3633    0.0045   -0.5668 C   0  0  0  0  0  0  0  0  0  0  0  0
   -1.1751    0.3083   -1.6914 C   0  0  0  0  0  0  0  0  0  0  0  0
   -2.5925    0.7604   -1.7287 C   0  0  0  0  0  0  0  0  0  0  0  0
    0.8688   -0.3696   -1.0972 C   0  0  0  0  0  0  0  0  0  0  0  0
    2.1501   -0.8103   -0.4881 C   0  0  0  0  0  0  0  0  0  0  0  0
    0.7184   -0.2694   -2.4182 N   0  0  0  0  0  0  0  0  0  0  0  0
   -0.4964    0.1351   -2.8038 N   0  0  0  0  0  0  0  0  0  0  0  0
   -0.8401   -0.8899    3.3230 H   0  0  0  0  0  0  0  0  0  0  0  0
   -0.3637    0.8093    3.3479 H   0  0  0  0  0  0  0  0  0  0  0  0
    1.0752   -0.5310    4.8551 H   0  0  0  0  0  0  0  0  0  0  0  0
    1.5712   -1.5684    3.5197 H   0  0  0  0  0  0  0  0  0  0  0  0
    2.0444    0.1375    3.5443 H   0  0  0  0  0  0  0  0  0  0  0  0
   -3.2582    0.0192   -1.2866 H   0  0  0  0  0  0  0  0  0  0  0  0
   -2.7312    1.6862   -1.1713 H   0  0  0  0  0  0  0  0  0  0  0  0
   -2.9036    0.9288   -2.7582 H   0  0  0  0  0  0  0  0  0  0  0  0
    2.0128   -1.7177    0.0979 H   0  0  0  0  0  0  0  0  0  0  0  0
    2.8923   -1.0132   -1.2589 H   0  0  0  0  0  0  0  0  0  0  0  0
    2.5523   -0.0490    0.1782 H   0  0  0  0  0  0  0  0  0  0  0  0
    1.4182   -0.4703   -3.1160 H   0  0  0  0  0  0  0  0  0  0  0  0
  1  2  2  0
  2  3  1  0
  2  6  1  0
  3  4  1  0
  4  5  1  0
  4 13  1  0
  4 14  1  0
  5 15  1  0
  5 16  1  0
  5 17  1  0
  6  7  1  0
  6  9  2  0
  7  8  1  0
  7 12  2  0
  8 18  1  0
  8 19  1  0
  8 20  1  0
  9 10  1  0
  9 11  1  0
 10 21  1  0
 10 22  1  0
 10 23  1  0
 11 12  1  0
 11 24  1  0
M  END
