
     RDKit          3D

 52 55  0  0  0  0  0  0  0  0999 V2000
    1.7414   -0.1412   -0.8519 C   0  0  2  0  0  0  0  0  0  0  0  0
   -0.8523   -1.3564   -1.2682 N   0  0  0  0  0  0  0  0  0  0  0  0
    0.4571    0.6900   -0.9251 C   0  0  0  0  0  0  0  0  0  0  0  0
   -0.5978   -0.0158   -1.7683 C   0  0  0  0  0  0  0  0  0  0  0  0
   -4.4274   -1.6212   -0.6628 N   0  0  0  0  0  0  0  0  0  0  0  0
    0.3427   -2.1854   -1.2516 C   0  0  0  0  0  0  0  0  0  0  0  0
    1.4199   -1.5579   -0.3770 C   0  0  0  0  0  0  0  0  0  0  0  0
   -2.0086   -1.8116   -0.7436 C   0  0  0  0  0  0  0  0  0  0  0  0
   -3.1960   -0.8582   -0.6680 C   0  0  2  0  0  0  0  0  0  0  0  0
   -3.0573    0.0191    0.5840 C   0  0  0  0  0  0  0  0  0  0  0  0
   -4.3255    0.7787    0.8756 C   0  0  0  0  0  0  0  0  0  0  0  0
   -5.5327    0.4061    0.2868 C   0  0  0  0  0  0  0  0  0  0  0  0
   -2.1232   -2.9445   -0.2927 O   0  0  0  0  0  0  0  0  0  0  0  0
   -5.5807   -0.7452   -0.6908 C   0  0  0  0  0  0  0  0  0  0  0  0
   -6.6898    1.1235    0.5838 C   0  0  0  0  0  0  0  0  0  0  0  0
   -6.6597    2.1965    1.4598 C   0  0  0  0  0  0  0  0  0  0  0  0
   -5.4566    2.5668    2.0505 C   0  0  0  0  0  0  0  0  0  0  0  0
   -4.3021    1.8599    1.7557 C   0  0  0  0  0  0  0  0  0  0  0  0
    2.1602   -0.2053   -1.8631 H   0  0  0  0  0  0  0  0  0  0  0  0
    0.0679    0.8610    0.0828 H   0  0  0  0  0  0  0  0  0  0  0  0
    0.6616    1.6690   -1.3640 H   0  0  0  0  0  0  0  0  0  0  0  0
   -0.2472   -0.0972   -2.8024 H   0  0  0  0  0  0  0  0  0  0  0  0
   -1.5070    0.5774   -1.7952 H   0  0  0  0  0  0  0  0  0  0  0  0
   -4.4596   -2.2056    0.1641 H   0  0  0  0  0  0  0  0  0  0  0  0
    0.0906   -3.1799   -0.8959 H   0  0  0  0  0  0  0  0  0  0  0  0
    0.7069   -2.2873   -2.2795 H   0  0  0  0  0  0  0  0  0  0  0  0
    2.3139   -2.1844   -0.4112 H   0  0  0  0  0  0  0  0  0  0  0  0
    1.0768   -1.5350    0.6599 H   0  0  0  0  0  0  0  0  0  0  0  0
   -3.2350   -0.2175   -1.5535 H   0  0  0  0  0  0  0  0  0  0  0  0
   -2.8166   -0.6221    1.4394 H   0  0  0  0  0  0  0  0  0  0  0  0
   -2.2239    0.7186    0.4865 H   0  0  0  0  0  0  0  0  0  0  0  0
   -5.6888   -0.3415   -1.7039 H   0  0  0  0  0  0  0  0  0  0  0  0
   -6.4737   -1.3479   -0.5135 H   0  0  0  0  0  0  0  0  0  0  0  0
   -7.6275    0.8328    0.1227 H   0  0  0  0  0  0  0  0  0  0  0  0
   -7.5684    2.7410    1.6827 H   0  0  0  0  0  0  0  0  0  0  0  0
   -5.4195    3.4036    2.7359 H   0  0  0  0  0  0  0  0  0  0  0  0
   -3.3626    2.1497    2.2130 H   0  0  0  0  0  0  0  0  0  0  0  0
    2.7396    0.5301    0.0710 C   0  0  0  0  0  0  0  0  0  0  0  0
    3.8048    1.0772   -0.5404 N   0  0  0  0  0  0  0  0  0  0  0  0
    4.8797    1.7427    0.1604 C   0  0  0  0  0  0  0  0  0  0  0  0
    6.0691    0.8711    0.3574 C   0  0  0  0  0  0  0  0  0  0  0  0
    2.5573    0.5877    1.2788 O   0  0  0  0  0  0  0  0  0  0  0  0
    7.3566    0.9765   -0.0518 C   0  0  0  0  0  0  0  0  0  0  0  0
    8.0335   -0.1789    0.4489 C   0  0  0  0  0  0  0  0  0  0  0  0
    7.0998   -0.8942    1.1162 C   0  0  0  0  0  0  0  0  0  0  0  0
    5.9062   -0.2650    1.0689 O   0  0  0  0  0  0  0  0  0  0  0  0
    3.9088    0.9519   -1.5343 H   0  0  0  0  0  0  0  0  0  0  0  0
    5.1903    2.6180   -0.4100 H   0  0  0  0  0  0  0  0  0  0  0  0
    4.4978    2.1028    1.1163 H   0  0  0  0  0  0  0  0  0  0  0  0
    7.7741    1.7786   -0.6391 H   0  0  0  0  0  0  0  0  0  0  0  0
    9.0717   -0.4387    0.3221 H   0  0  0  0  0  0  0  0  0  0  0  0
    7.1333   -1.8295    1.6512 H   0  0  0  0  0  0  0  0  0  0  0  0
 15 16  2  0
 15 12  1  0
 16 17  1  0
 14 12  1  0
 14  5  1  0
 12 11  2  0
 17 18  2  0
  3  4  1  0
  3  1  1  0
 11 18  1  0
 11 10  1  0
  9  5  1  0
  9 10  1  0
  9  8  1  0
  4  2  1  0
  1  7  1  0
  8  2  1  0
  8 13  2  0
  2  6  1  0
  7  6  1  0
  1 19  1  6
  3 20  1  0
  3 21  1  0
  4 22  1  0
  4 23  1  0
  5 24  1  0
  6 25  1  0
  6 26  1  0
  7 27  1  0
  7 28  1  0
  9 29  1  6
 10 30  1  0
 10 31  1  0
 14 32  1  0
 14 33  1  0
 15 34  1  0
 16 35  1  0
 17 36  1  0
 18 37  1  0
  1 38  1  0
 38 39  1  0
 39 40  1  0
 40 41  1  0
 38 42  2  0
 41 43  2  0
 43 44  1  0
 44 45  2  0
 41 46  1  0
 45 46  1  0
 39 47  1  0
 40 48  1  0
 40 49  1  0
 43 50  1  0
 44 51  1  0
 45 52  1  0
M  END
