
     RDKit          3D

 44 45  0  0  0  0  0  0  0  0999 V2000
   -1.3849   -1.5684   -0.0812 O   0  0  0  0  0  0  0  0  0  0  0  0
   -1.3685   -0.5742    0.6267 C   0  0  0  0  0  0  0  0  0  0  0  0
   -2.4249    0.4866    0.4945 C   0  0  0  0  0  0  0  0  0  0  0  0
   -3.2685    0.7070    1.5765 C   0  0  0  0  0  0  0  0  0  0  0  0
   -4.3269    1.5993    1.4810 C   0  0  0  0  0  0  0  0  0  0  0  0
   -4.5409    2.2888    0.2995 C   0  0  0  0  0  0  0  0  0  0  0  0
   -3.6928    2.0924   -0.7812 C   0  0  0  0  0  0  0  0  0  0  0  0
   -2.6381    1.1930   -0.6930 C   0  0  0  0  0  0  0  0  0  0  0  0
   -1.7314    1.0110   -1.8761 C   0  0  1  0  0  0  0  0  0  0  0  0
   -2.0356   -0.0799   -2.5886 F   0  0  0  0  0  0  0  0  0  0  0  0
   -1.7996    2.0472   -2.7202 F   0  0  0  0  0  0  0  0  0  0  0  0
   -0.4483    0.9010   -1.5091 F   0  0  0  0  0  0  0  0  0  0  0  0
   -0.4816   -0.3507    1.6050 N   0  0  0  0  0  0  0  0  0  0  0  0
    0.6042   -1.2552    1.9315 C   0  0  0  0  0  0  0  0  0  0  0  0
    1.8972   -0.8793    1.2545 C   0  0  0  0  0  0  0  0  0  0  0  0
    2.0914   -1.1193   -0.1055 C   0  0  0  0  0  0  0  0  0  0  0  0
    3.2722   -0.7523   -0.7259 C   0  0  0  0  0  0  0  0  0  0  0  0
    4.3098   -0.1297   -0.0237 C   0  0  0  0  0  0  0  0  0  0  0  0
    5.5946    0.2496   -0.7504 C   0  0  1  0  0  0  0  0  0  0  0  0
    5.2623    1.2014   -1.9082 C   0  0  0  0  0  0  0  0  0  0  0  0
    6.5982    0.9458    0.1675 C   0  0  0  0  0  0  0  0  0  0  0  0
    6.2513   -1.0206   -1.3099 C   0  0  0  0  0  0  0  0  0  0  0  0
    4.1070    0.1037    1.3326 C   0  0  0  0  0  0  0  0  0  0  0  0
    2.9206   -0.2647    1.9602 C   0  0  0  0  0  0  0  0  0  0  0  0
   -3.1076    0.1638    2.4989 H   0  0  0  0  0  0  0  0  0  0  0  0
   -4.9801    1.7524    2.3295 H   0  0  0  0  0  0  0  0  0  0  0  0
   -5.3618    2.9874    0.2143 H   0  0  0  0  0  0  0  0  0  0  0  0
   -3.8649    2.6539   -1.6888 H   0  0  0  0  0  0  0  0  0  0  0  0
   -0.4972    0.5411    2.0744 H   0  0  0  0  0  0  0  0  0  0  0  0
    0.7305   -1.2440    3.0143 H   0  0  0  0  0  0  0  0  0  0  0  0
    0.3032   -2.2645    1.6531 H   0  0  0  0  0  0  0  0  0  0  0  0
    1.3138   -1.6045   -0.6825 H   0  0  0  0  0  0  0  0  0  0  0  0
    3.3840   -0.9618   -1.7829 H   0  0  0  0  0  0  0  0  0  0  0  0
    4.7796    2.1113   -1.5461 H   0  0  0  0  0  0  0  0  0  0  0  0
    6.1753    1.4934   -2.4322 H   0  0  0  0  0  0  0  0  0  0  0  0
    4.5964    0.7402   -2.6389 H   0  0  0  0  0  0  0  0  0  0  0  0
    6.9074    0.3120    1.0006 H   0  0  0  0  0  0  0  0  0  0  0  0
    7.4968    1.1958   -0.3989 H   0  0  0  0  0  0  0  0  0  0  0  0
    6.2013    1.8757    0.5797 H   0  0  0  0  0  0  0  0  0  0  0  0
    5.6055   -1.5326   -2.0243 H   0  0  0  0  0  0  0  0  0  0  0  0
    7.1812   -0.7700   -1.8245 H   0  0  0  0  0  0  0  0  0  0  0  0
    6.4894   -1.7243   -0.5103 H   0  0  0  0  0  0  0  0  0  0  0  0
    4.8733    0.5800    1.9292 H   0  0  0  0  0  0  0  0  0  0  0  0
    2.8006   -0.0668    3.0194 H   0  0  0  0  0  0  0  0  0  0  0  0
  9 10  1  6
 12  9  1  0
  9  8  1  0
  9 11  1  0
  7  6  2  0
  7  8  1  0
  6  5  1  0
  8  3  2  0
  5  4  2  0
  3  4  1  0
  3  2  1  0
  1  2  2  0
  2 13  1  0
 13 14  1  0
 14 15  1  0
 16 15  2  0
 16 17  1  0
 15 24  1  0
 17 18  2  0
 24 23  2  0
 19 21  1  1
 18 23  1  0
 18 19  1  0
 19 20  1  0
 19 22  1  0
  4 25  1  0
  5 26  1  0
  6 27  1  0
  7 28  1  0
 13 29  1  0
 14 30  1  0
 14 31  1  0
 16 32  1  0
 17 33  1  0
 20 34  1  0
 20 35  1  0
 20 36  1  0
 21 37  1  0
 21 38  1  0
 21 39  1  0
 22 40  1  0
 22 41  1  0
 22 42  1  0
 23 43  1  0
 24 44  1  0
M  END
