
     RDKit          3D

 41 44  0  0  0  0  0  0  0  0999 V2000
    3.9166    0.7057   -0.2604 N   0  0  0  0  0  0  0  0  0  0  0  0
    4.3922    1.9460   -0.5546 C   0  0  0  0  0  0  0  0  0  0  0  0
    2.5803    0.4525   -0.0760 C   0  0  0  0  0  0  0  0  0  0  0  0
    4.4105   -1.6835   -0.6355 C   0  0  0  0  0  0  0  0  0  0  0  0
    4.9088   -0.3645   -0.0932 C   0  0  0  0  0  0  0  0  0  0  0  0
    0.2422    1.3957    0.0401 C   0  0  0  0  0  0  0  0  0  0  0  0
   -1.6227    0.7000    1.4112 C   0  0  0  0  0  0  0  0  0  0  0  0
   -0.6614    1.9002   -0.8931 C   0  0  0  0  0  0  0  0  0  0  0  0
   -4.0644   -0.9046   -0.5155 C   0  0  0  0  0  0  0  0  0  0  0  0
   -6.2901   -1.7876   -0.8445 C   0  0  0  0  0  0  0  0  0  0  0  0
    2.9317   -2.0881    0.2708 S   0  0  1  0  0  0  0  0  0  0  0  0
    3.3075   -2.3337    1.6623 O   0  0  0  0  0  0  0  0  0  0  0  0
    3.5711    3.0139   -0.6746 C   0  0  0  0  0  0  0  0  0  0  0  0
    2.1939    2.8139   -0.4685 C   0  0  0  0  0  0  0  0  0  0  0  0
    2.0662   -0.7365    0.1513 N   0  0  0  0  0  0  0  0  0  0  0  0
    1.6918    1.5783   -0.1722 C   0  0  0  0  0  0  0  0  0  0  0  0
   -2.0302    1.8119   -0.6863 C   0  0  0  0  0  0  0  0  0  0  0  0
   -2.5032    1.2164    0.4715 C   0  0  0  0  0  0  0  0  0  0  0  0
   -0.2581    0.7901    1.1928 C   0  0  0  0  0  0  0  0  0  0  0  0
   -3.8510    1.1738    0.7202 O   0  0  0  0  0  0  0  0  0  0  0  0
   -4.6020    0.1753    0.1749 C   0  0  0  0  0  0  0  0  0  0  0  0
   -5.9784    0.2788    0.3579 C   0  0  0  0  0  0  0  0  0  0  0  0
   -6.8135   -0.7024   -0.1505 C   0  0  0  0  0  0  0  0  0  0  0  0
   -4.9179   -1.8791   -1.0205 C   0  0  0  0  0  0  0  0  0  0  0  0
    5.4619    2.0188   -0.6810 H   0  0  0  0  0  0  0  0  0  0  0  0
    4.1628   -1.6249   -1.6958 H   0  0  0  0  0  0  0  0  0  0  0  0
    5.1537   -2.4650   -0.4797 H   0  0  0  0  0  0  0  0  0  0  0  0
    5.8102   -0.0717   -0.6251 H   0  0  0  0  0  0  0  0  0  0  0  0
    5.1607   -0.4473    0.9650 H   0  0  0  0  0  0  0  0  0  0  0  0
   -2.0015    0.2404    2.3151 H   0  0  0  0  0  0  0  0  0  0  0  0
   -0.2971    2.3616   -1.8024 H   0  0  0  0  0  0  0  0  0  0  0  0
   -2.9971   -1.0036   -0.6621 H   0  0  0  0  0  0  0  0  0  0  0  0
   -6.9448   -2.5524   -1.2403 H   0  0  0  0  0  0  0  0  0  0  0  0
    3.9757    3.9858   -0.9098 H   0  0  0  0  0  0  0  0  0  0  0  0
    1.5201    3.6591   -0.5290 H   0  0  0  0  0  0  0  0  0  0  0  0
   -2.7193    2.2104   -1.4201 H   0  0  0  0  0  0  0  0  0  0  0  0
    0.4202    0.3932    1.9354 H   0  0  0  0  0  0  0  0  0  0  0  0
   -6.3866    1.1253    0.8956 H   0  0  0  0  0  0  0  0  0  0  0  0
   -7.8821   -0.6156   -0.0025 H   0  0  0  0  0  0  0  0  0  0  0  0
   -4.4938   -2.7197   -1.5546 H   0  0  0  0  0  0  0  0  0  0  0  0
    2.2047   -3.1547   -0.4062 O   0  0  0  0  0  0  0  0  0  0  0  0
 23 22  2  0
 23 10  1  0
 22 21  1  0
 10 24  2  0
 14 13  1  0
 14 16  2  0
 13  2  2  0
 21 20  1  0
 21  9  2  0
 18 20  1  0
 18 17  1  0
 18  7  2  0
 17  8  2  0
  7 19  1  0
  8  6  1  0
 19  6  2  0
  6 16  1  0
 16  3  1  0
 24  9  1  0
  2  1  1  0
  3  1  1  0
  3 15  2  0
  1  5  1  0
 11 15  1  1
  5  4  1  0
 12 11  2  0
 11  4  1  0
 11 41  2  0
  2 25  1  0
  4 26  1  0
  4 27  1  0
  5 28  1  0
  5 29  1  0
  7 30  1  0
  8 31  1  0
  9 32  1  0
 10 33  1  0
 13 34  1  0
 14 35  1  0
 17 36  1  0
 19 37  1  0
 22 38  1  0
 23 39  1  0
 24 40  1  0
M  END
