
     RDKit          3D

 49 50  0  0  0  0  0  0  0  0999 V2000
   -2.1385    1.2823   -3.9671 C   0  0  0  0  0  0  0  0  0  0  0  0
   -1.8096   -0.1247   -4.4411 C   0  0  0  0  0  0  0  0  0  0  0  0
   -0.3434   -0.1847   -4.3155 N   0  0  0  0  0  0  0  0  0  0  0  0
    0.2491    1.1288   -4.1085 C   0  0  2  0  0  0  0  0  0  0  0  0
   -0.9198    2.0888   -4.3952 C   0  0  0  0  0  0  0  0  0  0  0  0
    1.3951    1.3807   -5.0635 C   0  0  0  0  0  0  0  0  0  0  0  0
    1.5310    0.8446   -6.1301 O   0  0  0  0  0  0  0  0  0  0  0  0
    2.1926    2.3287   -4.5941 O   0  0  0  0  0  0  0  0  0  0  0  0
    0.3928   -1.4986   -3.6787 S   0  0  2  0  0  0  0  0  0  0  0  0
    0.0016   -1.4820   -1.9474 C   0  0  0  0  0  0  0  0  0  0  0  0
    1.8235   -1.2753   -3.8043 O   0  0  0  0  0  0  0  0  0  0  0  0
   -0.2316   -2.6683   -4.2690 O   0  0  0  0  0  0  0  0  0  0  0  0
   -1.1555   -2.1059   -1.4970 C   0  0  0  0  0  0  0  0  0  0  0  0
   -1.4862   -2.0279   -0.1556 C   0  0  0  0  0  0  0  0  0  0  0  0
   -0.6737   -1.3307    0.7341 C   0  0  0  0  0  0  0  0  0  0  0  0
    0.4967   -0.7360    0.2709 C   0  0  0  0  0  0  0  0  0  0  0  0
    0.8399   -0.8084   -1.0691 C   0  0  0  0  0  0  0  0  0  0  0  0
   -1.0851   -1.2843    2.1711 C   0  0  0  0  0  0  0  0  0  0  0  0
   -0.5698   -0.2826    2.9085 N   0  0  0  0  0  0  0  0  0  0  0  0
   -0.9235   -0.1265    4.2951 C   0  0  1  0  0  0  0  0  0  0  0  0
    0.0207    0.8700    4.9729 C   0  0  0  0  0  0  0  0  0  0  0  0
    1.4358    0.3198    5.0536 C   0  0  0  0  0  0  0  0  0  0  0  0
    2.4005    1.2791    5.6941 C   0  0  0  0  0  0  0  0  0  0  0  0
   -1.8424   -2.1178    2.6420 O   0  0  0  0  0  0  0  0  0  0  0  0
   -2.3655    0.3151    4.5040 C   0  0  0  0  0  0  0  0  0  0  0  0
   -2.9480    0.1470    5.5451 O   0  0  0  0  0  0  0  0  0  0  0  0
   -2.8805    0.9304    3.4549 O   0  0  0  0  0  0  0  0  0  0  0  0
    3.6307    0.7803    5.7387 O   0  0  0  0  0  0  0  0  0  0  0  0
    2.1133    2.3690    6.1216 O   0  0  0  0  0  0  0  0  0  0  0  0
   -3.0634    1.6568   -4.4025 H   0  0  0  0  0  0  0  0  0  0  0  0
   -2.2432    1.3001   -2.8804 H   0  0  0  0  0  0  0  0  0  0  0  0
   -2.0924   -0.2823   -5.4827 H   0  0  0  0  0  0  0  0  0  0  0  0
   -2.3074   -0.8889   -3.8448 H   0  0  0  0  0  0  0  0  0  0  0  0
    0.5843    1.2748   -3.0748 H   0  0  0  0  0  0  0  0  0  0  0  0
   -0.9751    2.3139   -5.4623 H   0  0  0  0  0  0  0  0  0  0  0  0
   -0.8047    3.0260   -3.8548 H   0  0  0  0  0  0  0  0  0  0  0  0
    2.8824    2.5380   -5.2420 H   0  0  0  0  0  0  0  0  0  0  0  0
   -1.7914   -2.6620   -2.1717 H   0  0  0  0  0  0  0  0  0  0  0  0
   -2.3852   -2.5136    0.1975 H   0  0  0  0  0  0  0  0  0  0  0  0
    1.1755   -0.2314    0.9457 H   0  0  0  0  0  0  0  0  0  0  0  0
    1.7627   -0.3583   -1.4069 H   0  0  0  0  0  0  0  0  0  0  0  0
   -0.1383    0.5023    2.4447 H   0  0  0  0  0  0  0  0  0  0  0  0
   -0.8271   -1.0919    4.7976 H   0  0  0  0  0  0  0  0  0  0  0  0
   -0.3531    1.0728    5.9769 H   0  0  0  0  0  0  0  0  0  0  0  0
    0.0031    1.8185    4.4298 H   0  0  0  0  0  0  0  0  0  0  0  0
    1.8226    0.0559    4.0653 H   0  0  0  0  0  0  0  0  0  0  0  0
    1.4457   -0.6099    5.6312 H   0  0  0  0  0  0  0  0  0  0  0  0
   -3.7851    1.2196    3.6494 H   0  0  0  0  0  0  0  0  0  0  0  0
    4.2303    1.4150    6.1586 H   0  0  0  0  0  0  0  0  0  0  0  0
  1  2  1  0
  1  5  1  0
  1 30  1  0
  1 31  1  0
  2  3  1  0
  2 32  1  0
  2 33  1  0
  3  4  1  0
  3  9  1  0
  4  5  1  0
  4  6  1  0
  4 34  1  1
  5 35  1  0
  5 36  1  0
  6  7  2  0
  6  8  1  0
  8 37  1  0
  9 10  1  1
  9 11  2  0
  9 12  2  0
 10 13  2  0
 10 17  1  0
 13 14  1  0
 13 38  1  0
 14 15  2  0
 14 39  1  0
 15 16  1  0
 15 18  1  0
 16 17  2  0
 16 40  1  0
 17 41  1  0
 18 19  1  0
 18 24  2  0
 19 20  1  0
 19 42  1  0
 20 21  1  0
 20 25  1  0
 20 43  1  1
 21 22  1  0
 21 44  1  0
 21 45  1  0
 22 23  1  0
 22 46  1  0
 22 47  1  0
 23 28  1  0
 23 29  2  0
 25 26  2  0
 25 27  1  0
 27 48  1  0
 28 49  1  0
M  END
