
     RDKit          3D

 26 26  0  0  0  0  0  0  0  0999 V2000
    1.1890    1.8011    0.0112 C   0  0  0  0  0  0  0  0  0  0  0  0
    2.2406    1.0023    0.1725 N   0  0  0  0  0  0  0  0  0  0  0  0
    2.0718   -0.3086    0.1852 C   0  0  0  0  0  0  0  0  0  0  0  0
    0.7990   -0.8771    0.0282 C   0  0  0  0  0  0  0  0  0  0  0  0
   -0.3086   -0.0491   -0.1453 C   0  0  0  0  0  0  0  0  0  0  0  0
   -0.1055    1.3350   -0.1533 C   0  0  0  0  0  0  0  0  0  0  0  0
   -1.6704   -0.6437   -0.3889 C   0  0  0  0  0  0  0  0  0  0  0  0
   -1.8373   -1.7949    0.4130 O   0  0  0  0  0  0  0  0  0  0  0  0
   -3.0556   -2.4647    0.1612 C   0  0  0  0  0  0  0  0  0  0  0  0
   -1.2648    2.2765   -0.3450 C   0  0  0  0  0  0  0  0  0  0  0  0
   -0.8172    3.6049   -0.3173 O   0  0  0  0  0  0  0  0  0  0  0  0
    3.2740   -1.1839    0.3658 C   0  0  0  0  0  0  0  0  0  0  0  0
    0.7162   -2.2190    0.0366 O   0  0  0  0  0  0  0  0  0  0  0  0
    1.3968    2.8630    0.0148 H   0  0  0  0  0  0  0  0  0  0  0  0
   -2.4640    0.0768   -0.1664 H   0  0  0  0  0  0  0  0  0  0  0  0
   -1.7700   -0.8999   -1.4538 H   0  0  0  0  0  0  0  0  0  0  0  0
   -3.1026   -3.3261    0.8237 H   0  0  0  0  0  0  0  0  0  0  0  0
   -3.9117   -1.8143    0.3648 H   0  0  0  0  0  0  0  0  0  0  0  0
   -3.1208   -2.8084   -0.8758 H   0  0  0  0  0  0  0  0  0  0  0  0
   -1.7625    2.0425   -1.2957 H   0  0  0  0  0  0  0  0  0  0  0  0
   -2.0081    2.0889    0.4432 H   0  0  0  0  0  0  0  0  0  0  0  0
   -1.5713    4.1751   -0.4910 H   0  0  0  0  0  0  0  0  0  0  0  0
    3.4058   -1.8705   -0.4725 H   0  0  0  0  0  0  0  0  0  0  0  0
    4.1697   -0.5716    0.4476 H   0  0  0  0  0  0  0  0  0  0  0  0
    3.1948   -1.7959    1.2664 H   0  0  0  0  0  0  0  0  0  0  0  0
   -0.2195   -2.4669    0.1624 H   0  0  0  0  0  0  0  0  0  0  0  0
 12  3  1  0
 13  4  1  0
  3  4  2  0
  3  2  1  0
  4  5  1  0
  2  1  2  0
  5  7  1  0
  5  6  2  0
  7  8  1  0
  1  6  1  0
  6 10  1  0
  8  9  1  0
 10 11  1  0
  1 14  1  0
  7 15  1  0
  7 16  1  0
  9 17  1  0
  9 18  1  0
  9 19  1  0
 10 20  1  0
 10 21  1  0
 11 22  1  0
 12 23  1  0
 12 24  1  0
 12 25  1  0
 13 26  1  0
M  END
