
     RDKit          3D

 52 54  0  0  0  0  0  0  0  0999 V2000
    4.7622   -1.5238   -1.1407 C   0  0  0  0  0  0  0  0  0  0  0  0
    4.0484   -0.5400   -0.4107 C   0  0  0  0  0  0  0  0  0  0  0  0
    4.4611   -0.3315    0.9037 C   0  0  0  0  0  0  0  0  0  0  0  0
    5.4712   -1.0029    1.4435 N   0  0  0  0  0  0  0  0  0  0  0  0
    5.7704   -2.1952   -0.5971 N   0  0  0  0  0  0  0  0  0  0  0  0
    2.4535    0.0432    2.3505 C   0  0  0  0  0  0  0  0  0  0  0  0
    3.7388    0.6442    1.7825 C   0  0  0  0  0  0  0  0  0  0  0  0
    6.0798   -1.8994    0.6622 C   0  0  0  0  0  0  0  0  0  0  0  0
    7.1378   -2.5476    1.1957 N   0  0  0  0  0  0  0  0  0  0  0  0
    4.4372   -1.8062   -2.4075 N   0  0  0  0  0  0  0  0  0  0  0  0
    2.9678    0.1696   -0.9889 C   0  0  0  0  0  0  0  0  0  0  0  0
    2.0390    0.7835   -1.4540 C   0  0  0  0  0  0  0  0  0  0  0  0
    0.8793    1.5266   -1.9330 C   0  0  0  0  0  0  0  0  0  0  0  0
   -0.1923    1.6163   -0.8731 C   0  0  0  0  0  0  0  0  0  0  0  0
   -1.3769    0.9164   -0.9984 C   0  0  0  0  0  0  0  0  0  0  0  0
    0.0186    2.3958    0.2739 C   0  0  0  0  0  0  0  0  0  0  0  0
    1.1861    3.0571    0.3297 O   0  0  0  0  0  0  0  0  0  0  0  0
    1.4648    3.8517    1.4617 C   0  0  0  0  0  0  0  0  0  0  0  0
   -0.9573    2.4434    1.2630 C   0  0  0  0  0  0  0  0  0  0  0  0
   -2.1342    1.7250    1.1133 C   0  0  0  0  0  0  0  0  0  0  0  0
   -2.3711    0.9520   -0.0168 C   0  0  0  0  0  0  0  0  0  0  0  0
   -3.6291    0.2045   -0.1823 C   0  0  0  0  0  0  0  0  0  0  0  0
   -4.2420   -0.4220    0.9046 C   0  0  0  0  0  0  0  0  0  0  0  0
   -5.4285   -1.1125    0.7503 C   0  0  0  0  0  0  0  0  0  0  0  0
   -6.0378   -1.1998   -0.4985 C   0  0  0  0  0  0  0  0  0  0  0  0
   -7.3100   -1.9492   -0.6074 C   0  0  0  0  0  0  0  0  0  0  0  0
   -7.8544   -2.5010    0.3129 O   0  0  0  0  0  0  0  0  0  0  0  0
   -7.8073   -1.9545   -1.8467 O   0  0  0  0  0  0  0  0  0  0  0  0
   -5.4330   -0.5825   -1.5906 C   0  0  0  0  0  0  0  0  0  0  0  0
   -4.2462    0.1092   -1.4303 C   0  0  0  0  0  0  0  0  0  0  0  0
    1.7466   -0.2034    1.5585 H   0  0  0  0  0  0  0  0  0  0  0  0
    2.6600   -0.8632    2.9198 H   0  0  0  0  0  0  0  0  0  0  0  0
    1.9649    0.7509    3.0205 H   0  0  0  0  0  0  0  0  0  0  0  0
    4.4019    0.9382    2.5968 H   0  0  0  0  0  0  0  0  0  0  0  0
    3.4923    1.5424    1.2136 H   0  0  0  0  0  0  0  0  0  0  0  0
    7.4850   -3.3664    0.7312 H   0  0  0  0  0  0  0  0  0  0  0  0
    7.2716   -2.5046    2.1891 H   0  0  0  0  0  0  0  0  0  0  0  0
    3.6857   -1.3331   -2.8747 H   0  0  0  0  0  0  0  0  0  0  0  0
    4.9456   -2.5056   -2.9152 H   0  0  0  0  0  0  0  0  0  0  0  0
    1.1863    2.5248   -2.2573 H   0  0  0  0  0  0  0  0  0  0  0  0
    0.4759    1.0335   -2.8200 H   0  0  0  0  0  0  0  0  0  0  0  0
   -1.5217    0.3010   -1.8789 H   0  0  0  0  0  0  0  0  0  0  0  0
    2.4455    4.2902    1.3002 H   0  0  0  0  0  0  0  0  0  0  0  0
    0.7395    4.6595    1.5853 H   0  0  0  0  0  0  0  0  0  0  0  0
    1.4928    3.2596    2.3803 H   0  0  0  0  0  0  0  0  0  0  0  0
   -0.8290    3.0434    2.1530 H   0  0  0  0  0  0  0  0  0  0  0  0
   -2.8839    1.8024    1.8900 H   0  0  0  0  0  0  0  0  0  0  0  0
   -3.7731   -0.3878    1.8794 H   0  0  0  0  0  0  0  0  0  0  0  0
   -5.8853   -1.5975    1.6022 H   0  0  0  0  0  0  0  0  0  0  0  0
   -8.6325   -2.4562   -1.8382 H   0  0  0  0  0  0  0  0  0  0  0  0
   -5.8873   -0.6292   -2.5703 H   0  0  0  0  0  0  0  0  0  0  0  0
   -3.8070    0.6086   -2.2844 H   0  0  0  0  0  0  0  0  0  0  0  0
 27 26  2  0
 10  1  1  0
  5  1  2  0
  5  8  1  0
 26 28  1  0
 26 25  1  0
  9  8  1  0
  1  2  1  0
 29 25  2  0
 29 30  1  0
  8  4  2  0
 25 24  1  0
 30 22  2  0
  2 11  1  0
  2  3  2  0
  4  3  1  0
 11 12  3  0
  3  7  1  0
 24 23  2  0
  6  7  1  0
 22 23  1  0
 22 21  1  0
 12 13  1  0
 15 21  2  0
 15 14  1  0
 13 14  1  0
 21 20  1  0
 14 16  2  0
 20 19  2  0
 16 19  1  0
 16 17  1  0
 17 18  1  0
  6 31  1  0
  6 32  1  0
  6 33  1  0
  7 34  1  0
  7 35  1  0
  9 36  1  0
  9 37  1  0
 10 38  1  0
 10 39  1  0
 13 40  1  0
 13 41  1  0
 15 42  1  0
 18 43  1  0
 18 44  1  0
 18 45  1  0
 19 46  1  0
 20 47  1  0
 23 48  1  0
 24 49  1  0
 28 50  1  0
 29 51  1  0
 30 52  1  0
M  END
