
     RDKit          3D

 31 32  0  0  0  0  0  0  0  0999 V2000
    2.0347    1.4677    0.8888 C   0  0  0  0  0  0  0  0  0  0  0  0
    2.8670    0.4547    1.0367 N   0  0  0  0  0  0  0  0  0  0  0  0
   -0.6955    0.3445   -0.9840 N   0  0  0  0  0  0  0  0  0  0  0  0
    2.4703   -0.7042    0.4839 C   0  0  0  0  0  0  0  0  0  0  0  0
    0.8732    1.4806    0.2631 N   0  0  0  0  0  0  0  0  0  0  0  0
    0.4691    0.3362   -0.3065 C   0  0  0  0  0  0  0  0  0  0  0  0
    1.2780   -0.8166   -0.1939 C   0  0  0  0  0  0  0  0  0  0  0  0
    2.3373    2.4094    1.3383 H   0  0  0  0  0  0  0  0  0  0  0  0
    4.3715   -1.6442    0.2349 H   0  0  0  0  0  0  0  0  0  0  0  0
    3.5279   -2.1033    1.7032 H   0  0  0  0  0  0  0  0  0  0  0  0
    3.0062   -2.7642    0.1496 H   0  0  0  0  0  0  0  0  0  0  0  0
    0.9843   -1.7693   -0.6088 H   0  0  0  0  0  0  0  0  0  0  0  0
   -1.5734    1.5048   -0.9592 C   0  0  0  0  0  0  0  0  0  0  0  0
   -2.5502    1.4965    0.2082 C   0  0  0  0  0  0  0  0  0  0  0  0
   -3.3952    0.2289    0.3305 C   0  0  0  0  0  0  0  0  0  0  0  0
   -2.5938   -1.0232    0.6990 C   0  0  0  0  0  0  0  0  0  0  0  0
   -1.9361   -1.7733   -0.4597 C   0  0  0  0  0  0  0  0  0  0  0  0
   -1.2730   -0.8767   -1.5107 C   0  0  0  0  0  0  0  0  0  0  0  0
   -0.9725    2.4112   -0.9386 H   0  0  0  0  0  0  0  0  0  0  0  0
   -2.1247    1.5089   -1.9021 H   0  0  0  0  0  0  0  0  0  0  0  0
   -1.9966    1.6439    1.1405 H   0  0  0  0  0  0  0  0  0  0  0  0
   -3.2064    2.3645    0.0983 H   0  0  0  0  0  0  0  0  0  0  0  0
   -4.1393    0.4020    1.1117 H   0  0  0  0  0  0  0  0  0  0  0  0
   -3.9673    0.0638   -0.5895 H   0  0  0  0  0  0  0  0  0  0  0  0
   -1.8293   -0.7452    1.4317 H   0  0  0  0  0  0  0  0  0  0  0  0
   -3.2463   -1.7286    1.2190 H   0  0  0  0  0  0  0  0  0  0  0  0
   -1.2089   -2.4751   -0.0445 H   0  0  0  0  0  0  0  0  0  0  0  0
   -2.6797   -2.3842   -0.9784 H   0  0  0  0  0  0  0  0  0  0  0  0
   -2.0143   -0.5749   -2.2505 H   0  0  0  0  0  0  0  0  0  0  0  0
   -0.5213   -1.4389   -2.0688 H   0  0  0  0  0  0  0  0  0  0  0  0
    3.3876   -1.8740    0.6459 C   0  0  0  0  0  0  0  0  0  0  0  0
 31  4  1  0
  4  7  2  0
  4  2  1  0
  7  6  1  0
  2  1  2  0
  6  3  1  0
  6  5  2  0
  1  5  1  0
  1  8  1  0
 31  9  1  0
 31 10  1  0
 31 11  1  0
  7 12  1  0
  3 13  1  0
 13 14  1  0
 14 15  1  0
 15 16  1  0
 16 17  1  0
 17 18  1  0
 18  3  1  0
 13 19  1  0
 13 20  1  0
 14 21  1  0
 14 22  1  0
 15 23  1  0
 15 24  1  0
 16 25  1  0
 16 26  1  0
 17 27  1  0
 17 28  1  0
 18 29  1  0
 18 30  1  0
M  END
