
     RDKit          3D

 18 17  0  0  0  0  0  0  0  0999 V2000
   -1.1513   -0.9015   -0.4605 N   0  0  0  0  0  0  0  0  0  0  0  0
   -0.3077    0.2615   -0.2841 C   0  0  1  0  0  0  0  0  0  0  0  0
    0.3840    0.3783    1.0990 C   0  0  1  0  0  0  0  0  0  0  0  0
   -0.6164    0.6899    2.1943 C   0  0  0  0  0  0  0  0  0  0  0  0
    1.1394   -0.7860    1.3944 O   0  0  0  0  0  0  0  0  0  0  0  0
    0.7807    0.3390   -1.3759 C   0  0  0  0  0  0  0  0  0  0  0  0
    0.2337    0.6078   -2.6477 O   0  0  0  0  0  0  0  0  0  0  0  0
   -1.8893   -0.9053    0.2152 H   0  0  0  0  0  0  0  0  0  0  0  0
   -0.6162   -1.7435   -0.3704 H   0  0  0  0  0  0  0  0  0  0  0  0
   -0.9716    1.1696   -0.4041 H   0  0  0  0  0  0  0  0  0  0  0  0
    1.1614    1.1945    1.0481 H   0  0  0  0  0  0  0  0  0  0  0  0
   -0.0883    0.7855    3.1737 H   0  0  0  0  0  0  0  0  0  0  0  0
   -1.1410    1.6493    1.9728 H   0  0  0  0  0  0  0  0  0  0  0  0
   -1.3783   -0.1211    2.2872 H   0  0  0  0  0  0  0  0  0  0  0  0
    0.5258   -1.4693    1.6882 H   0  0  0  0  0  0  0  0  0  0  0  0
    1.4582    1.2108   -1.1703 H   0  0  0  0  0  0  0  0  0  0  0  0
    1.3852   -0.6063   -1.3952 H   0  0  0  0  0  0  0  0  0  0  0  0
   -0.4078   -0.0857   -2.8451 H   0  0  0  0  0  0  0  0  0  0  0  0
  1  2  1  0
  1  8  1  0
  1  9  1  0
  2  3  1  0
  2  6  1  0
  2 10  1  6
  3  4  1  0
  3  5  1  0
  3 11  1  6
  4 12  1  0
  4 13  1  0
  4 14  1  0
  5 15  1  0
  6  7  1  0
  6 16  1  0
  6 17  1  0
  7 18  1  0
M  END
