
     RDKit          3D

 56 59  0  0  0  0  0  0  0  0999 V2000
   -6.4663    1.2919   -0.8014 C   0  0  0  0  0  0  0  0  0  0  0  0
   -2.3492    0.8159    2.2062 C   0  0  0  0  0  0  0  0  0  0  0  0
   -3.2307    3.6830    1.8957 C   0  0  0  0  0  0  0  0  0  0  0  0
   -3.7576   -2.8507   -0.8897 O   0  0  0  0  0  0  0  0  0  0  0  0
   -4.1571   -0.7067   -2.0851 O   0  0  0  0  0  0  0  0  0  0  0  0
    2.9880   -0.4466    0.8496 C   0  0  0  0  0  0  0  0  0  0  0  0
    2.2380   -0.0535   -0.2537 C   0  0  0  0  0  0  0  0  0  0  0  0
    0.2279   -1.4212    0.2915 C   0  0  0  0  0  0  0  0  0  0  0  0
   -0.0289    0.4858   -1.1173 C   0  0  0  0  0  0  0  0  0  0  0  0
    4.2903    0.8789   -1.1146 C   0  0  0  0  0  0  0  0  0  0  0  0
    8.3037   -0.4272    1.2270 C   0  0  0  0  0  0  0  0  0  0  0  0
    8.4995    0.7559   -0.8325 C   0  0  0  0  0  0  0  0  0  0  0  0
    6.9337    0.1898    1.4811 C   0  0  0  0  0  0  0  0  0  0  0  0
    7.1321    1.3974   -0.6193 C   0  0  0  0  0  0  0  0  0  0  0  0
    4.2801   -0.2259    0.9978 N   0  0  0  0  0  0  0  0  0  0  0  0
   -4.9431    2.7198    0.4937 N   0  0  0  0  0  0  0  0  0  0  0  0
    9.1731    0.3853    0.3966 N   0  0  0  0  0  0  0  0  0  0  0  0
   -4.4687   -0.8315    0.4005 N   0  0  0  0  0  0  0  0  0  0  0  0
   -5.3029    1.5160    0.0981 C   0  0  0  0  0  0  0  0  0  0  0  0
   -3.4994    1.2638    1.3823 C   0  0  0  0  0  0  0  0  0  0  0  0
   -1.1190   -1.6887    0.1571 C   0  0  0  0  0  0  0  0  0  0  0  0
   -1.3756    0.2047   -1.2660 C   0  0  0  0  0  0  0  0  0  0  0  0
    2.9468    0.6398   -1.2447 C   0  0  0  0  0  0  0  0  0  0  0  0
    4.9640    0.4101    0.0387 C   0  0  0  0  0  0  0  0  0  0  0  0
   -4.4229    0.5551    0.6317 C   0  0  0  0  0  0  0  0  0  0  0  0
   -1.9523   -0.9253   -0.6711 C   0  0  0  0  0  0  0  0  0  0  0  0
    6.3001    0.5577    0.2237 N   0  0  0  0  0  0  0  0  0  0  0  0
   -3.8609    2.5498    1.2626 N   0  0  0  0  0  0  0  0  0  0  0  0
    0.8070   -0.3369   -0.3664 C   0  0  0  0  0  0  0  0  0  0  0  0
   -3.6643   -1.4060   -0.9209 S   0  0  1  0  0  0  0  0  0  0  0  0
   -6.1481    1.2079   -1.8406 H   0  0  0  0  0  0  0  0  0  0  0  0
   -6.9816    0.3668   -0.5464 H   0  0  0  0  0  0  0  0  0  0  0  0
   -7.1759    2.1144   -0.7304 H   0  0  0  0  0  0  0  0  0  0  0  0
   -1.3949    1.1054    1.7615 H   0  0  0  0  0  0  0  0  0  0  0  0
   -2.3873    1.2394    3.2106 H   0  0  0  0  0  0  0  0  0  0  0  0
   -2.3520   -0.2663    2.3127 H   0  0  0  0  0  0  0  0  0  0  0  0
   -3.3956    3.6756    2.9728 H   0  0  0  0  0  0  0  0  0  0  0  0
   -2.1590    3.6823    1.7046 H   0  0  0  0  0  0  0  0  0  0  0  0
   -3.6595    4.5882    1.4778 H   0  0  0  0  0  0  0  0  0  0  0  0
    2.5087   -0.9514    1.6830 H   0  0  0  0  0  0  0  0  0  0  0  0
    2.4484    0.9823   -2.1428 H   0  0  0  0  0  0  0  0  0  0  0  0
    0.8275   -2.0751    0.9091 H   0  0  0  0  0  0  0  0  0  0  0  0
    0.3617    1.3814   -1.5796 H   0  0  0  0  0  0  0  0  0  0  0  0
    4.8007    1.4071   -1.9043 H   0  0  0  0  0  0  0  0  0  0  0  0
    8.7913   -0.6155    2.1851 H   0  0  0  0  0  0  0  0  0  0  0  0
    8.1699   -1.3984    0.7399 H   0  0  0  0  0  0  0  0  0  0  0  0
    6.2993   -0.5134    2.0121 H   0  0  0  0  0  0  0  0  0  0  0  0
    7.0376    1.0808    2.1152 H   0  0  0  0  0  0  0  0  0  0  0  0
    9.4326    1.2251    0.9024 H   0  0  0  0  0  0  0  0  0  0  0  0
    8.3777   -0.1413   -1.4472 H   0  0  0  0  0  0  0  0  0  0  0  0
    9.1282    1.4471   -1.3962 H   0  0  0  0  0  0  0  0  0  0  0  0
    7.2562    2.3832   -0.1515 H   0  0  0  0  0  0  0  0  0  0  0  0
    6.6707    1.5592   -1.5893 H   0  0  0  0  0  0  0  0  0  0  0  0
   -4.4603   -1.4593    1.1966 H   0  0  0  0  0  0  0  0  0  0  0  0
   -1.7346   -2.9629    1.1488 Cl  0  0  0  0  0  0  0  0  0  0  0  0
   -2.2737    1.3818   -2.1488 Cl  0  0  0  0  0  0  0  0  0  0  0  0
  1 19  1  0
  2 20  1  0
  3 28  1  0
  4 30  2  0
  5 30  2  0
 55 21  1  0
 56 22  1  0
  6  7  2  0
  6 15  1  0
  7 23  1  0
  7 29  1  0
  8 21  2  0
  8 29  1  0
  9 22  1  0
  9 29  2  0
 10 23  2  0
 10 24  1  0
 11 13  1  0
 11 17  1  0
 12 14  1  0
 12 17  1  0
 13 27  1  0
 14 27  1  0
 15 24  2  0
 16 19  2  0
 16 28  1  0
 18 25  1  0
 30 18  1  1
 19 25  1  0
 20 25  2  0
 20 28  1  0
 21 26  1  0
 22 26  2  0
 24 27  1  0
 26 30  1  0
  1 31  1  0
  1 32  1  0
  1 33  1  0
  2 34  1  0
  2 35  1  0
  2 36  1  0
  3 37  1  0
  3 38  1  0
  3 39  1  0
  6 40  1  0
 23 41  1  0
  8 42  1  0
  9 43  1  0
 10 44  1  0
 11 45  1  0
 11 46  1  0
 13 47  1  0
 13 48  1  0
 17 49  1  0
 12 50  1  0
 12 51  1  0
 14 52  1  0
 14 53  1  0
 18 54  1  0
M  END
