
     RDKit          3D

 30 30  0  0  0  0  0  0  0  0999 V2000
    1.1607   -1.6692    3.5988 N   0  0  0  0  0  0  0  0  0  0  0  0
    0.6070   -0.3443    3.7508 C   0  0  1  0  0  0  0  0  0  0  0  0
   -0.2695    0.1717    2.6011 C   0  0  0  0  0  0  0  0  0  0  0  0
    0.6878    0.0988    1.1164 S   0  0  0  0  0  0  0  0  0  0  0  0
   -0.2518   -0.2758    5.0066 C   0  0  0  0  0  0  0  0  0  0  0  0
   -1.1433   -1.0430    5.3732 O   0  0  0  0  0  0  0  0  0  0  0  0
    0.1850    0.6180   -3.8428 C   0  0  2  0  0  0  0  0  0  0  0  0
   -0.9476    0.6035   -4.7400 N   0  0  0  0  0  0  0  0  0  0  0  0
    1.1656   -0.4868   -4.2176 C   0  0  0  0  0  0  0  0  0  0  0  0
    2.4634   -0.0941   -4.1430 O   0  0  0  0  0  0  0  0  0  0  0  0
    0.9315   -1.6442   -4.5653 O   0  0  0  0  0  0  0  0  0  0  0  0
   -1.1239    1.3958   -0.5386 N   0  0  0  0  0  0  0  0  0  0  0  0
   -0.5599    0.0664   -0.1597 C   0  0  1  0  0  0  0  0  0  0  0  0
    0.0595   -0.4546   -1.4333 C   0  0  0  0  0  0  0  0  0  0  0  0
    0.0353    0.7883    5.8017 O   0  0  0  0  0  0  0  0  0  0  0  0
    0.4495   -2.3718    3.6661 H   0  0  0  0  0  0  0  0  0  0  0  0
    1.6363   -1.7444    2.7200 H   0  0  0  0  0  0  0  0  0  0  0  0
    1.4787    0.3693    3.8810 H   0  0  0  0  0  0  0  0  0  0  0  0
   -1.2002   -0.4390    2.5088 H   0  0  0  0  0  0  0  0  0  0  0  0
   -0.5693    1.2263    2.8142 H   0  0  0  0  0  0  0  0  0  0  0  0
    0.7096    1.6176   -3.9783 H   0  0  0  0  0  0  0  0  0  0  0  0
   -1.4108   -0.2849   -4.7304 H   0  0  0  0  0  0  0  0  0  0  0  0
   -1.5915    1.3305   -4.4929 H   0  0  0  0  0  0  0  0  0  0  0  0
    3.0442   -0.8329   -4.3909 H   0  0  0  0  0  0  0  0  0  0  0  0
   -0.6175    2.1237   -0.0324 H   0  0  0  0  0  0  0  0  0  0  0  0
   -1.4251   -0.5681    0.1719 H   0  0  0  0  0  0  0  0  0  0  0  0
    0.5671   -1.4143   -1.5038 H   0  0  0  0  0  0  0  0  0  0  0  0
   -0.5423    0.7780    6.5834 H   0  0  0  0  0  0  0  0  0  0  0  0
   -0.1495    0.4800   -2.3892 C   0  0  0  0  0  0  0  0  0  0  0  0
   -0.8600    1.5933   -1.8704 O   0  0  0  0  0  0  0  0  0  0  0  0
  1  2  1  0
  1 16  1  0
  1 17  1  0
  2  3  1  0
  2  5  1  0
  2 18  1  1
  3  4  1  0
  3 19  1  0
  3 20  1  0
  4 13  1  0
  5  6  2  0
  5 15  1  0
  7  8  1  0
  7  9  1  0
  7 29  1  0
  7 21  1  1
  8 22  1  0
  8 23  1  0
  9 10  1  0
  9 11  2  0
 10 24  1  0
 29 30  1  0
 29 14  2  0
 30 12  1  0
 12 13  1  0
 12 25  1  0
 13 14  1  0
 13 26  1  1
 14 27  1  0
 15 28  1  0
M  END
