
     RDKit          3D

 59 60  0  0  0  0  0  0  0  0999 V2000
    7.7009    1.3810   -0.1227 C   0  0  0  0  0  0  0  0  0  0  0  0
    6.5867    0.5650   -0.4213 O   0  0  0  0  0  0  0  0  0  0  0  0
    5.3675    1.1421   -0.5122 C   0  0  0  0  0  0  0  0  0  0  0  0
    4.3222    0.2454   -0.8037 C   0  0  0  0  0  0  0  0  0  0  0  0
    4.5778   -1.0726   -0.9526 O   0  0  0  0  0  0  0  0  0  0  0  0
    5.0995    2.4884   -0.3376 C   0  0  0  0  0  0  0  0  0  0  0  0
    3.7887    2.9499   -0.4505 C   0  0  0  0  0  0  0  0  0  0  0  0
    2.7669    2.0680   -0.7375 C   0  0  0  0  0  0  0  0  0  0  0  0
    3.0194    0.7070   -0.9275 C   0  0  0  0  0  0  0  0  0  0  0  0
    1.8682   -0.2193   -1.2238 C   0  0  0  0  0  0  0  0  0  0  0  0
    1.0951   -0.5022   -0.0234 N   0  0  0  0  0  0  0  0  0  0  0  0
    1.8303   -1.1707    1.0110 C   0  0  0  0  0  0  0  0  0  0  0  0
    2.3060   -2.5826    0.7185 C   0  0  0  0  0  0  0  0  0  0  0  0
    3.1247   -3.0131    1.6750 O   0  0  0  0  0  0  0  0  0  0  0  0
    1.9862   -3.2584   -0.2263 O   0  0  0  0  0  0  0  0  0  0  0  0
   -0.2489   -0.9867   -0.2819 C   0  0  0  0  0  0  0  0  0  0  0  0
   -1.1824   -0.7433    0.8997 C   0  0  0  0  0  0  0  0  0  0  0  0
   -2.5536   -1.0904    0.5537 N   0  0  0  0  0  0  0  0  0  0  0  0
   -2.7797   -2.5076    0.6812 C   0  0  0  0  0  0  0  0  0  0  0  0
   -3.9326   -3.0277   -0.1460 C   0  0  0  0  0  0  0  0  0  0  0  0
   -4.2362   -4.2726    0.2161 O   0  0  0  0  0  0  0  0  0  0  0  0
   -4.4944   -2.4389   -1.0303 O   0  0  0  0  0  0  0  0  0  0  0  0
   -3.5526   -0.3404    1.2980 C   0  0  0  0  0  0  0  0  0  0  0  0
   -3.3973    1.1502    1.1736 C   0  0  0  0  0  0  0  0  0  0  0  0
   -3.2384    1.9100    2.3269 C   0  0  0  0  0  0  0  0  0  0  0  0
   -3.1141    3.2916    2.2830 C   0  0  0  0  0  0  0  0  0  0  0  0
   -3.1355    3.9287    1.0532 C   0  0  0  0  0  0  0  0  0  0  0  0
   -3.2826    3.1907   -0.1131 C   0  0  0  0  0  0  0  0  0  0  0  0
   -3.4218    1.8042   -0.0696 C   0  0  0  0  0  0  0  0  0  0  0  0
   -3.6321    0.8326   -1.5290 S   0  0  0  0  0  0  0  0  0  0  0  0
   -4.1224    2.0715   -2.7488 C   0  0  0  0  0  0  0  0  0  0  0  0
    7.8589    2.1465   -0.8866 H   0  0  0  0  0  0  0  0  0  0  0  0
    7.5981    1.8674    0.8506 H   0  0  0  0  0  0  0  0  0  0  0  0
    8.5679    0.7260   -0.0979 H   0  0  0  0  0  0  0  0  0  0  0  0
    5.5149   -1.2443   -0.7987 H   0  0  0  0  0  0  0  0  0  0  0  0
    5.8937    3.1890   -0.1162 H   0  0  0  0  0  0  0  0  0  0  0  0
    3.5827    4.0031   -0.3132 H   0  0  0  0  0  0  0  0  0  0  0  0
    1.7475    2.4250   -0.8237 H   0  0  0  0  0  0  0  0  0  0  0  0
    1.2007    0.2910   -1.9216 H   0  0  0  0  0  0  0  0  0  0  0  0
    2.2130   -1.1220   -1.7399 H   0  0  0  0  0  0  0  0  0  0  0  0
    2.7038   -0.5718    1.2861 H   0  0  0  0  0  0  0  0  0  0  0  0
    1.2328   -1.2188    1.9262 H   0  0  0  0  0  0  0  0  0  0  0  0
    3.4033   -3.9217    1.4869 H   0  0  0  0  0  0  0  0  0  0  0  0
   -0.6539   -0.4104   -1.1166 H   0  0  0  0  0  0  0  0  0  0  0  0
   -0.2744   -2.0391   -0.5942 H   0  0  0  0  0  0  0  0  0  0  0  0
   -0.8538   -1.2809    1.8024 H   0  0  0  0  0  0  0  0  0  0  0  0
   -1.1279    0.3189    1.1380 H   0  0  0  0  0  0  0  0  0  0  0  0
   -1.8965   -3.0546    0.3365 H   0  0  0  0  0  0  0  0  0  0  0  0
   -2.9257   -2.8227    1.7278 H   0  0  0  0  0  0  0  0  0  0  0  0
   -4.9465   -4.6167   -0.3456 H   0  0  0  0  0  0  0  0  0  0  0  0
   -4.5377   -0.6239    0.9160 H   0  0  0  0  0  0  0  0  0  0  0  0
   -3.5447   -0.6042    2.3680 H   0  0  0  0  0  0  0  0  0  0  0  0
   -3.2133    1.4006    3.2834 H   0  0  0  0  0  0  0  0  0  0  0  0
   -2.9965    3.8590    3.1967 H   0  0  0  0  0  0  0  0  0  0  0  0
   -3.0337    5.0045    0.9902 H   0  0  0  0  0  0  0  0  0  0  0  0
   -3.2874    3.7169   -1.0574 H   0  0  0  0  0  0  0  0  0  0  0  0
   -4.9835    2.6503   -2.4170 H   0  0  0  0  0  0  0  0  0  0  0  0
   -3.3081    2.7430   -3.0156 H   0  0  0  0  0  0  0  0  0  0  0  0
   -4.4036    1.5111   -3.6392 H   0  0  0  0  0  0  0  0  0  0  0  0
 22 20  2  0
  8  7  2  0
  8  9  1  0
 10  9  1  0
 10 11  1  0
  7  6  1  0
  9  4  2  0
 20 21  1  0
 20 19  1  0
 16 11  1  0
 16 17  1  0
 11 12  1  0
  6  3  2  0
 19 18  1  0
  4  3  1  0
  4  5  1  0
 17 18  1  0
 12 13  1  0
  3  2  1  0
 18 23  1  0
  2  1  1  0
 13 15  2  0
 13 14  1  0
 25 26  2  0
 25 24  1  0
 26 27  1  0
 23 24  1  0
 31 30  1  0
 24 29  2  0
 27 28  2  0
 29 28  1  0
 29 30  1  0
  1 32  1  0
  1 33  1  0
  1 34  1  0
  5 35  1  0
  6 36  1  0
  7 37  1  0
  8 38  1  0
 10 39  1  0
 10 40  1  0
 12 41  1  0
 12 42  1  0
 14 43  1  0
 16 44  1  0
 16 45  1  0
 17 46  1  0
 17 47  1  0
 19 48  1  0
 19 49  1  0
 21 50  1  0
 23 51  1  0
 23 52  1  0
 25 53  1  0
 26 54  1  0
 27 55  1  0
 28 56  1  0
 31 57  1  0
 31 58  1  0
 31 59  1  0
M  END
