
     RDKit          3D

 53 56  0  0  0  0  0  0  0  0999 V2000
   -3.8600    1.7178    0.1252 C   0  0  0  0  0  0  0  0  0  0  0  0
   -5.1142   -0.2401   -0.4118 C   0  0  0  0  0  0  0  0  0  0  0  0
   -3.6721   -0.2523    1.5228 C   0  0  0  0  0  0  0  0  0  0  0  0
    3.3363   -1.1081   -0.1972 C   0  0  0  0  0  0  0  0  0  0  0  0
    5.3286   -0.5701   -1.4647 C   0  0  0  0  0  0  0  0  0  0  0  0
    3.6826    1.1401   -0.9655 C   0  0  0  0  0  0  0  0  0  0  0  0
    2.8808    0.2173   -0.2850 C   0  0  0  0  0  0  0  0  0  0  0  0
    1.3205    0.0835    1.5886 C   0  0  0  0  0  0  0  0  0  0  0  0
   -0.1754    0.1337    1.8237 C   0  0  0  0  0  0  0  0  0  0  0  0
   -0.3408    1.9728    0.2717 C   0  0  0  0  0  0  0  0  0  0  0  0
    1.1557    1.9100    0.0281 C   0  0  0  0  0  0  0  0  0  0  0  0
   -3.3214    1.0656    1.2261 C   0  0  0  0  0  0  0  0  0  0  0  0
   -4.7631    1.0730   -0.7093 C   0  0  0  0  0  0  0  0  0  0  0  0
   -4.5650   -0.8925    0.6958 C   0  0  0  0  0  0  0  0  0  0  0  0
   -5.0746   -2.2986    0.7726 C   0  0  0  0  0  0  0  0  0  0  0  0
   -6.1901   -2.3274   -0.2777 C   0  0  0  0  0  0  0  0  0  0  0  0
   -7.6456   -1.8849   -2.6682 C   0  0  0  0  0  0  0  0  0  0  0  0
    4.5373   -1.4796   -0.7693 C   0  0  0  0  0  0  0  0  0  0  0  0
    4.8705    0.7292   -1.5478 C   0  0  0  0  0  0  0  0  0  0  0  0
    4.9798   -2.9109   -0.7119 C   0  0  1  0  0  0  0  0  0  0  0  0
    4.4052   -3.5875    0.2864 F   0  0  0  0  0  0  0  0  0  0  0  0
    4.6804   -3.5603   -1.8466 F   0  0  0  0  0  0  0  0  0  0  0  0
    6.3036   -3.0178   -0.5480 F   0  0  0  0  0  0  0  0  0  0  0  0
    1.6581    0.5718    0.2600 N   0  0  0  0  0  0  0  0  0  0  0  0
   -0.6390    1.5033    1.6210 N   0  0  0  0  0  0  0  0  0  0  0  0
   -6.0035   -1.0937   -1.0597 N   0  0  0  0  0  0  0  0  0  0  0  0
   -2.2944    3.3258    2.0441 O   0  0  0  0  0  0  0  0  0  0  0  0
   -2.1895    1.3340    3.5714 O   0  0  0  0  0  0  0  0  0  0  0  0
   -6.5209    0.2171   -2.8281 O   0  0  0  0  0  0  0  0  0  0  0  0
   -2.1320    1.8934    2.2308 S   0  0  1  0  0  0  0  0  0  0  0  0
    5.8262    1.9037   -2.3889 Cl  0  0  0  0  0  0  0  0  0  0  0  0
   -3.5939    2.7432   -0.0916 H   0  0  0  0  0  0  0  0  0  0  0  0
   -3.2640   -0.7672    2.3824 H   0  0  0  0  0  0  0  0  0  0  0  0
    6.2644   -0.8553   -1.9241 H   0  0  0  0  0  0  0  0  0  0  0  0
    3.4030    2.1808   -1.0381 H   0  0  0  0  0  0  0  0  0  0  0  0
    1.8292    0.6774    2.3593 H   0  0  0  0  0  0  0  0  0  0  0  0
    1.6352   -0.9496    1.7128 H   0  0  0  0  0  0  0  0  0  0  0  0
   -0.6812   -0.5640    1.1444 H   0  0  0  0  0  0  0  0  0  0  0  0
   -0.3695   -0.1813    2.8464 H   0  0  0  0  0  0  0  0  0  0  0  0
   -0.6574    3.0073    0.1542 H   0  0  0  0  0  0  0  0  0  0  0  0
   -0.8593    1.3650   -0.4803 H   0  0  0  0  0  0  0  0  0  0  0  0
    1.3142    2.1908   -1.0127 H   0  0  0  0  0  0  0  0  0  0  0  0
    1.6625    2.6537    0.6582 H   0  0  0  0  0  0  0  0  0  0  0  0
   -5.1756    1.6015   -1.5515 H   0  0  0  0  0  0  0  0  0  0  0  0
   -4.2797   -3.0066    0.5300 H   0  0  0  0  0  0  0  0  0  0  0  0
   -6.1234   -3.2022   -0.9204 H   0  0  0  0  0  0  0  0  0  0  0  0
   -8.1327   -1.5612   -3.5840 H   0  0  0  0  0  0  0  0  0  0  0  0
   -7.1378   -2.8310   -2.8602 H   0  0  0  0  0  0  0  0  0  0  0  0
   -8.4107   -2.0751   -1.9138 H   0  0  0  0  0  0  0  0  0  0  0  0
   -5.4461   -2.5575    1.7632 H   0  0  0  0  0  0  0  0  0  0  0  0
   -7.1766   -2.3221    0.1883 H   0  0  0  0  0  0  0  0  0  0  0  0
   -6.6839   -0.8214   -2.2123 C   0  0  0  0  0  0  0  0  0  0  0  0
    2.7307   -1.8499    0.3025 H   0  0  0  0  0  0  0  0  0  0  0  0
 27 30  2  0
 15 14  1  0
 15 16  1  0
  3 14  2  0
  3 12  1  0
 30 28  2  0
 30 12  1  6
 30 25  1  0
 14  2  1  0
 16 26  1  0
 12  1  2  0
  2 26  1  0
  2 13  2  0
 26 52  1  0
 25 10  1  0
 25  9  1  0
 10 11  1  0
  1 13  1  0
 52 17  1  0
 52 29  2  0
 11 24  1  0
  9  8  1  0
 24  8  1  0
 24  7  1  0
 20 21  1  1
  4  7  2  0
  4 18  1  0
  7  6  1  0
 23 20  1  0
 20 18  1  0
 20 22  1  0
 18  5  2  0
  6 19  2  0
  5 19  1  0
 19 31  1  0
  1 32  1  0
  3 33  1  0
  4 53  1  0
  5 34  1  0
  6 35  1  0
  8 36  1  0
  8 37  1  0
  9 38  1  0
  9 39  1  0
 10 40  1  0
 10 41  1  0
 11 42  1  0
 11 43  1  0
 13 44  1  0
 15 45  1  0
 16 46  1  0
 17 47  1  0
 17 48  1  0
 17 49  1  0
 15 50  1  0
 16 51  1  0
M  END
