
     RDKit          3D

 47 50  0  0  0  0  0  0  0  0999 V2000
   -1.5706    0.1306   -0.8767 C   0  0  0  0  0  0  0  0  0  0  0  0
   -3.0361    0.0016   -0.6490 C   0  0  0  0  0  0  0  0  0  0  0  0
   -3.7417    0.9736    0.0124 N   0  0  0  0  0  0  0  0  0  0  0  0
   -5.0540    0.6097    0.1126 C   0  0  0  0  0  0  0  0  0  0  0  0
   -6.1354    1.2770    0.6834 C   0  0  0  0  0  0  0  0  0  0  0  0
   -7.3692    0.6550    0.6306 C   0  0  0  0  0  0  0  0  0  0  0  0
   -7.5246   -0.6019    0.0239 C   0  0  0  0  0  0  0  0  0  0  0  0
   -6.4489   -1.2594   -0.5420 C   0  0  0  0  0  0  0  0  0  0  0  0
   -5.1873   -0.6543   -0.5060 C   0  0  0  0  0  0  0  0  0  0  0  0
   -0.7606   -0.0926    0.4047 C   0  0  0  0  0  0  0  0  0  0  0  0
    5.9867   -0.9002    0.6490 C   0  0  0  0  0  0  0  0  0  0  0  0
    7.3226   -0.6269    0.3805 C   0  0  0  0  0  0  0  0  0  0  0  0
    7.6646    0.4580   -0.4143 C   0  0  0  0  0  0  0  0  0  0  0  0
    6.6602    1.2639   -0.9373 C   0  0  0  0  0  0  0  0  0  0  0  0
    5.3280    0.9850   -0.6666 C   0  0  0  0  0  0  0  0  0  0  0  0
    4.9697   -0.1018    0.1315 C   0  0  0  0  0  0  0  0  0  0  0  0
    3.5256   -0.4129    0.4266 C   0  0  2  0  0  0  0  0  0  0  0  0
    2.7258   -0.7403   -0.8359 C   0  0  0  0  0  0  0  0  0  0  0  0
    2.8200    0.7153    1.1804 C   0  0  0  0  0  0  0  0  0  0  0  0
    1.3622    0.3669    1.4404 C   0  0  0  0  0  0  0  0  0  0  0  0
    1.2723   -1.0275   -0.4928 C   0  0  0  0  0  0  0  0  0  0  0  0
   -3.8883   -1.0157   -0.9800 C   0  0  0  0  0  0  0  0  0  0  0  0
    0.6612    0.0955    0.1967 N   0  0  0  0  0  0  0  0  0  0  0  0
   -1.2849   -0.5890   -1.6449 H   0  0  0  0  0  0  0  0  0  0  0  0
   -1.3351    1.1238   -1.2692 H   0  0  0  0  0  0  0  0  0  0  0  0
   -1.0897    0.6305    1.1551 H   0  0  0  0  0  0  0  0  0  0  0  0
   -0.9939   -1.0895    0.8131 H   0  0  0  0  0  0  0  0  0  0  0  0
   -3.3544    1.8405    0.3471 H   0  0  0  0  0  0  0  0  0  0  0  0
   -3.6123   -1.9184   -1.5032 H   0  0  0  0  0  0  0  0  0  0  0  0
   -6.0152    2.2454    1.1528 H   0  0  0  0  0  0  0  0  0  0  0  0
   -8.2310    1.1461    1.0637 H   0  0  0  0  0  0  0  0  0  0  0  0
   -8.5055   -1.0591   -0.0013 H   0  0  0  0  0  0  0  0  0  0  0  0
   -6.5822   -2.2278   -1.0088 H   0  0  0  0  0  0  0  0  0  0  0  0
    8.0948   -1.2646    0.7921 H   0  0  0  0  0  0  0  0  0  0  0  0
    8.7037    0.6752   -0.6256 H   0  0  0  0  0  0  0  0  0  0  0  0
    6.9151    2.1136   -1.5580 H   0  0  0  0  0  0  0  0  0  0  0  0
    4.5596    1.6242   -1.0862 H   0  0  0  0  0  0  0  0  0  0  0  0
    3.5027   -1.3018    1.0694 H   0  0  0  0  0  0  0  0  0  0  0  0
    2.7728    0.0988   -1.5360 H   0  0  0  0  0  0  0  0  0  0  0  0
    3.1564   -1.6068   -1.3429 H   0  0  0  0  0  0  0  0  0  0  0  0
    3.3235    0.9124    2.1298 H   0  0  0  0  0  0  0  0  0  0  0  0
    2.8622    1.6392    0.5958 H   0  0  0  0  0  0  0  0  0  0  0  0
    0.7231   -1.2386   -1.4118 H   0  0  0  0  0  0  0  0  0  0  0  0
    1.2226   -1.9445    0.1228 H   0  0  0  0  0  0  0  0  0  0  0  0
    1.3092   -0.4953    2.1287 H   0  0  0  0  0  0  0  0  0  0  0  0
    0.8726    1.2036    1.9448 H   0  0  0  0  0  0  0  0  0  0  0  0
    5.7300   -1.7506    1.2705 H   0  0  0  0  0  0  0  0  0  0  0  0
  1  2  1  0
  1 10  1  0
  2  3  1  0
  2 22  2  0
  3  4  1  0
  4  5  2  0
  4  9  1  0
  5  6  1  0
  6  7  2  0
  7  8  1  0
  8  9  2  0
  9 22  1  0
 10 23  1  0
 11 12  2  0
 11 16  1  0
 12 13  1  0
 13 14  2  0
 14 15  1  0
 15 16  2  0
 16 17  1  0
 17 18  1  0
 17 19  1  0
 18 21  1  0
 19 20  1  0
 20 23  1  0
 21 23  1  0
  1 24  1  0
  1 25  1  0
 10 26  1  0
 10 27  1  0
  3 28  1  0
 22 29  1  0
  5 30  1  0
  6 31  1  0
  7 32  1  0
  8 33  1  0
 11 47  1  0
 12 34  1  0
 13 35  1  0
 14 36  1  0
 15 37  1  0
 17 38  1  1
 18 39  1  0
 18 40  1  0
 19 41  1  0
 19 42  1  0
 21 43  1  0
 21 44  1  0
 20 45  1  0
 20 46  1  0
M  END
