
     RDKit          3D

 30 31  0  0  0  0  0  0  0  0999 V2000
   19.0465   28.0103   22.3109 Cl  0  0  0  0  0  0  0  0  0  0  0  0
   17.7607   28.3160   21.2022 C   0  0  0  0  0  0  0  0  0  0  0  0
   17.4104   29.6266   20.9143 C   0  0  0  0  0  0  0  0  0  0  0  0
   16.3802   29.8698   20.0213 C   0  0  0  0  0  0  0  0  0  0  0  0
   15.7219   28.7983   19.4309 C   0  0  0  0  0  0  0  0  0  0  0  0
   16.0760   27.4874   19.7207 C   0  0  0  0  0  0  0  0  0  0  0  0
   17.1003   27.2436   20.6186 C   0  0  0  0  0  0  0  0  0  0  0  0
   14.4898   29.1113   18.2018 S   0  0  1  0  0  0  0  0  0  0  0  0
   13.6590   27.9334   18.0483 O   0  0  0  0  0  0  0  0  0  0  0  0
   13.8991   30.4071   18.4705 O   0  0  0  0  0  0  0  0  0  0  0  0
   15.3418   29.2373   16.7681 N   0  0  0  0  0  0  0  0  0  0  0  0
   16.3128   30.2582   16.6681 C   0  0  0  0  0  0  0  0  0  0  0  0
   15.8755   31.5564   16.4358 C   0  0  0  0  0  0  0  0  0  0  0  0
   16.7733   32.6046   16.3423 C   0  0  0  0  0  0  0  0  0  0  0  0
   18.1296   32.3484   16.4770 C   0  0  0  0  0  0  0  0  0  0  0  0
   18.5901   31.0653   16.7103 C   0  0  0  0  0  0  0  0  0  0  0  0
   17.6868   30.0089   16.8146 C   0  0  0  0  0  0  0  0  0  0  0  0
   19.3636   33.7633   16.3309 Br  0  0  0  0  0  0  0  0  0  0  0  0
   18.1977   28.6323   17.0511 C   0  0  0  0  0  0  0  0  0  0  0  0
   19.3995   28.6212   17.5940 O   0  0  0  0  0  0  0  0  0  0  0  0
   17.5848   27.6262   16.7744 O   0  0  0  0  0  0  0  0  0  0  0  0
   17.9308   30.4530   21.3775 H   0  0  0  0  0  0  0  0  0  0  0  0
   16.1016   30.8912   19.8014 H   0  0  0  0  0  0  0  0  0  0  0  0
   15.5658   26.6531   19.2597 H   0  0  0  0  0  0  0  0  0  0  0  0
   17.3812   26.2275   20.8566 H   0  0  0  0  0  0  0  0  0  0  0  0
   15.6921   28.3249   16.4837 H   0  0  0  0  0  0  0  0  0  0  0  0
   14.8202   31.7469   16.3061 H   0  0  0  0  0  0  0  0  0  0  0  0
   16.4082   33.6042   16.1503 H   0  0  0  0  0  0  0  0  0  0  0  0
   19.6504   30.8800   16.8085 H   0  0  0  0  0  0  0  0  0  0  0  0
   19.7132   27.7093   17.6950 H   0  0  0  0  0  0  0  0  0  0  0  0
  1  2  1  0
  2  3  2  0
  2  7  1  0
  3  4  1  0
  3 22  1  0
  4  5  2  0
  4 23  1  0
  5  6  1  0
  5  8  1  0
  6  7  2  0
  6 24  1  0
  7 25  1  0
  8  9  2  0
  8 10  2  0
  8 11  1  6
 11 12  1  0
 11 26  1  0
 12 13  2  0
 12 17  1  0
 13 14  1  0
 13 27  1  0
 14 15  2  0
 14 28  1  0
 15 16  1  0
 15 18  1  0
 16 17  2  0
 16 29  1  0
 17 19  1  0
 19 20  1  0
 19 21  2  0
 20 30  1  0
M  END
