
     RDKit          3D

 46 49  0  0  0  0  0  0  0  0999 V2000
   -4.4490   -0.0257   -0.0225 C   0  0  0  0  0  0  0  0  0  0  0  0
    3.2415   -2.6024    0.0406 C   0  0  0  0  0  0  0  0  0  0  0  0
   -2.9752    0.2770   -0.2417 C   0  0  0  0  0  0  0  0  0  0  0  0
   -1.5067    2.2386   -0.1620 C   0  0  0  0  0  0  0  0  0  0  0  0
    2.4521    0.0550   -0.0131 C   0  0  0  0  0  0  0  0  0  0  0  0
   -1.3728    3.6709   -0.1745 C   0  0  0  0  0  0  0  0  0  0  0  0
   -0.1335    4.2010   -0.1417 C   0  0  0  0  0  0  0  0  0  0  0  0
    2.8754    2.5935   -0.0258 C   0  0  0  0  0  0  0  0  0  0  0  0
    2.0436    1.4552   -0.0405 C   0  0  0  0  0  0  0  0  0  0  0  0
    1.5174   -0.9823   -0.0235 C   0  0  0  0  0  0  0  0  0  0  0  0
    1.8984   -2.3285    0.0030 C   0  0  0  0  0  0  0  0  0  0  0  0
   -6.1056   -1.8823   -0.0703 N   0  0  0  0  0  0  0  0  0  0  0  0
   -2.7343    1.7009   -0.1742 N   0  0  0  0  0  0  0  0  0  0  0  0
   -4.6990   -1.5273   -0.0601 C   0  0  0  0  0  0  0  0  0  0  0  0
    0.9287    3.3613   -0.0953 N   0  0  0  0  0  0  0  0  0  0  0  0
   -6.2737   -3.2952   -0.3357 C   0  0  0  0  0  0  0  0  0  0  0  0
   -6.7835   -1.5099    1.1533 C   0  0  0  0  0  0  0  0  0  0  0  0
    2.2171    3.7340   -0.0587 N   0  0  0  0  0  0  0  0  0  0  0  0
    4.1803   -1.5837    0.0505 C   0  0  0  0  0  0  0  0  0  0  0  0
    3.8279   -0.2606    0.0244 C   0  0  0  0  0  0  0  0  0  0  0  0
    5.4242   -2.1217    0.1128 O   0  0  0  0  0  0  0  0  0  0  0  0
    5.2568   -3.5211   -0.0750 C   0  0  0  0  0  0  0  0  0  0  0  0
    3.8755   -3.8019    0.1002 O   0  0  0  0  0  0  0  0  0  0  0  0
    0.7566    1.9954   -0.0876 C   0  0  0  0  0  0  0  0  0  0  0  0
   -0.4606    1.4386   -0.1263 N   0  0  0  0  0  0  0  0  0  0  0  0
   -4.7579    0.4004    0.9350 H   0  0  0  0  0  0  0  0  0  0  0  0
   -5.0489    0.4541   -0.8019 H   0  0  0  0  0  0  0  0  0  0  0  0
   -2.3716   -0.2209    0.5206 H   0  0  0  0  0  0  0  0  0  0  0  0
   -2.6490   -0.1232   -1.2084 H   0  0  0  0  0  0  0  0  0  0  0  0
   -2.2396    4.3145   -0.2070 H   0  0  0  0  0  0  0  0  0  0  0  0
    0.0770    5.2606   -0.1477 H   0  0  0  0  0  0  0  0  0  0  0  0
    3.9547    2.6135    0.0110 H   0  0  0  0  0  0  0  0  0  0  0  0
    0.4631   -0.7466   -0.0562 H   0  0  0  0  0  0  0  0  0  0  0  0
    1.1557   -3.1148   -0.0009 H   0  0  0  0  0  0  0  0  0  0  0  0
   -3.5148    2.3192   -0.3249 H   0  0  0  0  0  0  0  0  0  0  0  0
   -4.2509   -1.9276   -0.9751 H   0  0  0  0  0  0  0  0  0  0  0  0
   -4.1652   -2.0050    0.7815 H   0  0  0  0  0  0  0  0  0  0  0  0
   -5.8319   -3.9401    0.4407 H   0  0  0  0  0  0  0  0  0  0  0  0
   -7.3347   -3.5395   -0.4039 H   0  0  0  0  0  0  0  0  0  0  0  0
   -5.8092   -3.5564   -1.2877 H   0  0  0  0  0  0  0  0  0  0  0  0
   -6.7605   -0.4307    1.3030 H   0  0  0  0  0  0  0  0  0  0  0  0
   -7.8319   -1.8058    1.0979 H   0  0  0  0  0  0  0  0  0  0  0  0
   -6.3480   -1.9824    2.0487 H   0  0  0  0  0  0  0  0  0  0  0  0
    4.5872    0.5102    0.0342 H   0  0  0  0  0  0  0  0  0  0  0  0
    5.5687   -3.7990   -1.0877 H   0  0  0  0  0  0  0  0  0  0  0  0
    5.8416   -4.0647    0.6666 H   0  0  0  0  0  0  0  0  0  0  0  0
 18  8  2  0
 18 15  1  0
  8  9  1  0
 15  7  1  0
 15 24  1  0
  7  6  2  0
  9 24  2  0
  9  5  1  0
 10  5  2  0
 10 11  1  0
 24 25  1  0
  6  4  1  0
 17 12  1  0
  5 20  1  0
 11  2  2  0
 25  4  2  0
  4 13  1  0
 20 19  2  0
  2 19  1  0
  2 23  1  0
 12 14  1  0
 12 16  1  0
 19 21  1  0
  1 14  1  0
  1  3  1  0
 23 22  1  0
 13  3  1  0
 21 22  1  0
  1 26  1  0
  1 27  1  0
  3 28  1  0
  3 29  1  0
  6 30  1  0
  7 31  1  0
  8 32  1  0
 10 33  1  0
 11 34  1  0
 13 35  1  0
 14 36  1  0
 14 37  1  0
 16 38  1  0
 16 39  1  0
 16 40  1  0
 17 41  1  0
 17 42  1  0
 17 43  1  0
 20 44  1  0
 22 45  1  0
 22 46  1  0
M  END
