
     RDKit          3D

 15 14  0  0  0  0  0  0  0  0999 V2000
   -0.1207    1.9982    0.3769 N   0  0  0  0  0  0  0  0  0  0  0  0
   -0.0857    0.5599    0.4364 C   0  0  2  0  0  0  0  0  0  0  0  0
    1.2603    0.0090    0.0052 C   0  0  0  0  0  0  0  0  0  0  0  0
    2.0681    0.4525   -0.8095 O   0  0  0  0  0  0  0  0  0  0  0  0
   -1.1646   -0.1695   -0.4207 C   0  0  1  0  0  0  0  0  0  0  0  0
    1.5749   -1.1514    0.6453 O   0  0  0  0  0  0  0  0  0  0  0  0
    0.1904    2.3375   -0.5120 H   0  0  0  0  0  0  0  0  0  0  0  0
   -1.0480    2.3242    0.5711 H   0  0  0  0  0  0  0  0  0  0  0  0
   -0.2603    0.2640    1.5171 H   0  0  0  0  0  0  0  0  0  0  0  0
   -1.1529    0.1519   -1.4997 H   0  0  0  0  0  0  0  0  0  0  0  0
    2.4416   -1.4696    0.3414 H   0  0  0  0  0  0  0  0  0  0  0  0
   -0.9521   -1.8763    0.4858 H   0  0  0  0  0  0  0  0  0  0  0  0
   -3.0682   -0.4554   -0.2314 H   0  0  0  0  0  0  0  0  0  0  0  0
   -1.0417   -1.5661   -0.4257 O   0  0  0  0  0  0  0  0  0  0  0  0
   -2.4039    0.1013    0.1950 O   0  0  0  0  0  0  0  0  0  0  0  0
  1  2  1  0
  2  3  1  0
  2  5  1  0
  3  4  2  0
  3  6  1  0
 14  5  1  0
 15  5  1  0
  1  7  1  0
  1  8  1  0
  2  9  1  1
  5 10  1  6
  6 11  1  0
 14 12  1  0
 15 13  1  0
M  END
