
     RDKit          3D

 33 34  0  0  0  0  0  0  0  0999 V2000
   -3.2878    2.4139    0.0581 C   0  0  0  0  0  0  0  0  0  0  0  0
   -3.0412    1.0225    0.0267 O   0  0  0  0  0  0  0  0  0  0  0  0
   -1.7657    0.6030    0.0027 C   0  0  0  0  0  0  0  0  0  0  0  0
   -0.6568    1.4255   -0.0003 C   0  0  0  0  0  0  0  0  0  0  0  0
    0.6393    0.8982   -0.0303 C   0  0  0  0  0  0  0  0  0  0  0  0
    1.8240    1.8243   -0.0147 C   0  0  0  0  0  0  0  0  0  0  0  0
    3.0965    1.1283   -0.4425 C   0  0  0  0  0  0  0  0  0  0  0  0
    3.2440   -0.1596    0.2958 N   0  0  2  0  0  0  0  0  0  0  0  0
    4.5833   -0.7615    0.0939 C   0  0  0  0  0  0  0  0  0  0  0  0
    2.1672   -1.1092   -0.0912 C   0  0  0  0  0  0  0  0  0  0  0  0
    0.8083   -0.4718   -0.0429 C   0  0  0  0  0  0  0  0  0  0  0  0
   -0.3076   -1.3159   -0.0396 C   0  0  0  0  0  0  0  0  0  0  0  0
   -1.5869   -0.7994   -0.0232 C   0  0  0  0  0  0  0  0  0  0  0  0
   -2.7158   -1.5286   -0.0246 O   0  0  0  0  0  0  0  0  0  0  0  0
   -2.6001   -2.9370   -0.0596 C   0  0  0  0  0  0  0  0  0  0  0  0
   -4.3679    2.5348    0.0791 H   0  0  0  0  0  0  0  0  0  0  0  0
   -2.8637    2.8840    0.9494 H   0  0  0  0  0  0  0  0  0  0  0  0
   -2.8942    2.9189   -0.8283 H   0  0  0  0  0  0  0  0  0  0  0  0
   -0.7708    2.5019    0.0171 H   0  0  0  0  0  0  0  0  0  0  0  0
    1.6618    2.6670   -0.6882 H   0  0  0  0  0  0  0  0  0  0  0  0
    1.9560    2.2516    0.9840 H   0  0  0  0  0  0  0  0  0  0  0  0
    3.0913    0.8789   -1.5038 H   0  0  0  0  0  0  0  0  0  0  0  0
    3.9731    1.7359   -0.2291 H   0  0  0  0  0  0  0  0  0  0  0  0
    3.1484    0.0378    1.2942 H   0  0  0  0  0  0  0  0  0  0  0  0
    4.7222   -0.9563   -0.9656 H   0  0  0  0  0  0  0  0  0  0  0  0
    5.3359   -0.0643    0.4483 H   0  0  0  0  0  0  0  0  0  0  0  0
    4.6416   -1.6883    0.6566 H   0  0  0  0  0  0  0  0  0  0  0  0
    2.4116   -1.4588   -1.0966 H   0  0  0  0  0  0  0  0  0  0  0  0
    2.2295   -1.9601    0.5860 H   0  0  0  0  0  0  0  0  0  0  0  0
   -0.1515   -2.3871   -0.0502 H   0  0  0  0  0  0  0  0  0  0  0  0
   -3.6134   -3.3302   -0.0638 H   0  0  0  0  0  0  0  0  0  0  0  0
   -2.0835   -3.2808   -0.9599 H   0  0  0  0  0  0  0  0  0  0  0  0
   -2.0745   -3.3244    0.8174 H   0  0  0  0  0  0  0  0  0  0  0  0
 15 14  1  0
  8  9  1  0
  8 10  1  0
  8  7  1  0
 10 11  1  0
 12 11  2  0
 12 13  1  0
 11  5  1  0
 14 13  1  0
 13  3  2  0
  5  6  1  0
  5  4  2  0
  7  6  1  0
  3  4  1  0
  3  2  1  0
  2  1  1  0
  1 16  1  0
  1 17  1  0
  1 18  1  0
  4 19  1  0
  6 20  1  0
  6 21  1  0
  7 22  1  0
  7 23  1  0
  8 24  1  1
  9 25  1  0
  9 26  1  0
  9 27  1  0
 10 28  1  0
 10 29  1  0
 12 30  1  0
 15 31  1  0
 15 32  1  0
 15 33  1  0
M  CHG  1   8   1
M  END
