
     RDKit          3D

 69 71  0  0  0  0  0  0  0  0999 V2000
   -3.6753    2.2240    0.2399 C   0  0  1  0  0  0  0  0  0  0  0  0
   -3.0613    3.4225    0.9635 C   0  0  0  0  0  0  0  0  0  0  0  0
   -4.0281    4.6037    0.9803 C   0  0  0  0  0  0  0  0  0  0  0  0
   -4.4622    4.9868   -0.4310 C   0  0  0  0  0  0  0  0  0  0  0  0
   -5.0493    3.7881   -1.1692 C   0  0  0  0  0  0  0  0  0  0  0  0
   -4.0736    2.6137   -1.1831 C   0  0  0  0  0  0  0  0  0  0  0  0
   -3.3369   -0.2369   -0.2895 N   0  0  0  0  0  0  0  0  0  0  0  0
   -2.7945    0.9563    0.3317 C   0  0  1  0  0  0  0  0  0  0  0  0
   -1.4155    1.1702   -0.2726 C   0  0  0  0  0  0  0  0  0  0  0  0
   -1.2135    1.1132   -1.4797 O   0  0  0  0  0  0  0  0  0  0  0  0
   -0.4205    1.4449    0.5761 N   0  0  0  0  0  0  0  0  0  0  0  0
    0.9868    1.5318    0.2637 C   0  0  2  0  0  0  0  0  0  0  0  0
    1.5257    0.2577   -0.3652 C   0  0  0  0  0  0  0  0  0  0  0  0
    1.0549   -0.8328   -0.0840 O   0  0  0  0  0  0  0  0  0  0  0  0
    2.5758    0.4407   -1.1787 N   0  0  0  0  0  0  0  0  0  0  0  0
    3.3382   -0.6340   -1.7715 C   0  0  0  0  0  0  0  0  0  0  0  0
    4.6482   -0.8828   -1.0664 C   0  0  0  0  0  0  0  0  0  0  0  0
    5.8420   -0.9044   -1.7795 C   0  0  0  0  0  0  0  0  0  0  0  0
    7.0501   -1.1398   -1.1418 C   0  0  0  0  0  0  0  0  0  0  0  0
    7.0943   -1.3658    0.2306 C   0  0  0  0  0  0  0  0  0  0  0  0
    5.8983   -1.3412    0.9477 C   0  0  0  0  0  0  0  0  0  0  0  0
    4.6928   -1.1035    0.3074 C   0  0  0  0  0  0  0  0  0  0  0  0
    8.4051   -1.6011    0.8969 C   0  0  0  0  0  0  0  0  0  0  0  0
    9.4636   -1.1507    0.3400 N   0  0  0  0  0  0  0  0  0  0  0  0
    8.3427   -2.2453    2.0990 N   0  0  0  0  0  0  0  0  0  0  0  0
    1.2664    1.6087    1.7892 C   0  0  0  0  0  0  0  0  0  0  0  0
   -0.2404    1.3886    2.0222 C   0  0  0  0  0  0  0  0  0  0  0  0
   -4.6240   -0.6459    0.2156 C   0  0  0  0  0  0  0  0  0  0  0  0
   -7.5262   -4.4374    0.7420 C   0  0  0  0  0  0  0  0  0  0  0  0
   -5.0685   -1.9315   -0.4590 C   0  0  0  0  0  0  0  0  0  0  0  0
   -4.7472   -2.2018   -1.6086 O   0  0  0  0  0  0  0  0  0  0  0  0
   -6.4620   -3.9381   -0.2167 C   0  0  0  0  0  0  0  0  0  0  0  0
   -5.8726   -2.7085    0.2769 N   0  0  0  0  0  0  0  0  0  0  0  0
   -4.5980    1.9757    0.7817 H   0  0  0  0  0  0  0  0  0  0  0  0
   -2.7959    3.1472    1.9882 H   0  0  0  0  0  0  0  0  0  0  0  0
   -2.1325    3.7250    0.4676 H   0  0  0  0  0  0  0  0  0  0  0  0
   -3.1838    2.8934   -1.7552 H   0  0  0  0  0  0  0  0  0  0  0  0
   -4.5277    1.7668   -1.7057 H   0  0  0  0  0  0  0  0  0  0  0  0
   -2.6806    0.7367    1.3998 H   0  0  0  0  0  0  0  0  0  0  0  0
   -4.9106    4.3336    1.5704 H   0  0  0  0  0  0  0  0  0  0  0  0
   -3.5671    5.4575    1.4825 H   0  0  0  0  0  0  0  0  0  0  0  0
   -5.1872    5.8036   -0.3952 H   0  0  0  0  0  0  0  0  0  0  0  0
   -3.5964    5.3629   -0.9871 H   0  0  0  0  0  0  0  0  0  0  0  0
   -5.9800    3.4813   -0.6798 H   0  0  0  0  0  0  0  0  0  0  0  0
   -5.3145    4.0661   -2.1922 H   0  0  0  0  0  0  0  0  0  0  0  0
   -3.3766   -0.1250   -1.2945 H   0  0  0  0  0  0  0  0  0  0  0  0
   -4.5570   -0.7893    1.2975 H   0  0  0  0  0  0  0  0  0  0  0  0
   -5.4313    0.0866    0.0567 H   0  0  0  0  0  0  0  0  0  0  0  0
    1.2707    2.4217   -0.3036 H   0  0  0  0  0  0  0  0  0  0  0  0
   -0.7513    2.1806    2.5696 H   0  0  0  0  0  0  0  0  0  0  0  0
   -0.4998    0.4231    2.4591 H   0  0  0  0  0  0  0  0  0  0  0  0
    1.9165    0.8328    2.1871 H   0  0  0  0  0  0  0  0  0  0  0  0
    1.6287    2.5816    2.1102 H   0  0  0  0  0  0  0  0  0  0  0  0
    2.9125    1.3790   -1.3269 H   0  0  0  0  0  0  0  0  0  0  0  0
    2.7248   -1.5348   -1.7545 H   0  0  0  0  0  0  0  0  0  0  0  0
    3.5219   -0.3964   -2.8201 H   0  0  0  0  0  0  0  0  0  0  0  0
    3.7822   -1.0965    0.8942 H   0  0  0  0  0  0  0  0  0  0  0  0
    5.8303   -0.7343   -2.8496 H   0  0  0  0  0  0  0  0  0  0  0  0
    5.8956   -1.4878    2.0200 H   0  0  0  0  0  0  0  0  0  0  0  0
    7.9682   -1.1483   -1.7133 H   0  0  0  0  0  0  0  0  0  0  0  0
   10.2924   -1.3980    0.8740 H   0  0  0  0  0  0  0  0  0  0  0  0
    7.5867   -2.8893    2.2646 H   0  0  0  0  0  0  0  0  0  0  0  0
    9.2136   -2.5271    2.5202 H   0  0  0  0  0  0  0  0  0  0  0  0
   -8.3334   -3.7127    0.8519 H   0  0  0  0  0  0  0  0  0  0  0  0
   -7.9565   -5.3658    0.3693 H   0  0  0  0  0  0  0  0  0  0  0  0
   -7.1099   -4.6387    1.7302 H   0  0  0  0  0  0  0  0  0  0  0  0
   -5.6894   -4.7010   -0.3465 H   0  0  0  0  0  0  0  0  0  0  0  0
   -6.8992   -3.7587   -1.2004 H   0  0  0  0  0  0  0  0  0  0  0  0
   -6.0465   -2.4545    1.2362 H   0  0  0  0  0  0  0  0  0  0  0  0
  1  2  1  0
  1  6  1  0
  1  8  1  0
  2  3  1  0
  3  4  1  0
  4  5  1  0
  5  6  1  0
  7  8  1  0
  7 28  1  0
  8  9  1  0
  9 10  2  0
  9 11  1  0
 11 12  1  0
 11 27  1  0
 12 13  1  0
 12 26  1  0
 13 14  2  0
 13 15  1  0
 15 16  1  0
 16 17  1  0
 17 22  1  0
 17 18  2  0
 22 21  2  0
 21 20  1  0
 20 19  2  0
 20 23  1  0
 19 18  1  0
 23 24  2  0
 23 25  1  0
 26 27  1  0
 28 30  1  0
 29 32  1  0
 30 31  2  0
 30 33  1  0
 32 33  1  0
  1 34  1  1
  2 35  1  0
  2 36  1  0
  6 37  1  0
  6 38  1  0
  8 39  1  1
  3 40  1  0
  3 41  1  0
  4 42  1  0
  4 43  1  0
  5 44  1  0
  5 45  1  0
  7 46  1  0
 28 47  1  0
 28 48  1  0
 12 49  1  6
 27 50  1  0
 27 51  1  0
 26 52  1  0
 26 53  1  0
 15 54  1  0
 16 55  1  0
 16 56  1  0
 22 57  1  0
 18 58  1  0
 21 59  1  0
 19 60  1  0
 24 61  1  0
 25 62  1  0
 25 63  1  0
 29 64  1  0
 29 65  1  0
 29 66  1  0
 32 67  1  0
 32 68  1  0
 33 69  1  0
M  END
