
     RDKit          3D

 65 68  0  0  0  0  0  0  0  0999 V2000
    1.9058   -1.4640   -1.1481 N   0  0  0  0  0  0  0  0  0  0  0  0
    3.8663   -0.3536   -0.2021 C   0  0  0  0  0  0  0  0  0  0  0  0
    6.1199    3.5979   -0.5380 N   0  0  0  0  0  0  0  0  0  0  0  0
    5.4469    1.7657    0.5467 C   0  0  0  0  0  0  0  0  0  0  0  0
    4.9021    1.7199   -0.7463 C   0  0  0  0  0  0  0  0  0  0  0  0
    3.1184   -1.5961   -0.5681 C   0  0  0  0  0  0  0  0  0  0  0  0
    0.0273   -2.9851   -0.6963 C   0  0  0  0  0  0  0  0  0  0  0  0
   -5.9236    0.7370    1.0596 C   0  0  0  0  0  0  0  0  0  0  0  0
   -6.4931    1.9403    0.3145 C   0  0  1  0  0  0  0  0  0  0  0  0
    5.3748    2.9090   -1.3646 C   0  0  0  0  0  0  0  0  0  0  0  0
   -2.5954   -3.5020    0.5064 C   0  0  0  0  0  0  0  0  0  0  0  0
   -2.9438   -0.7103   -1.3307 C   0  0  0  0  0  0  0  0  0  0  0  0
   -4.0367   -0.6891    0.9000 C   0  0  0  0  0  0  0  0  0  0  0  0
    5.2312    0.7602    1.5043 C   0  0  0  0  0  0  0  0  0  0  0  0
    4.4491   -0.2922    1.0865 C   0  0  0  0  0  0  0  0  0  0  0  0
    4.0918    0.6437   -1.1261 C   0  0  0  0  0  0  0  0  0  0  0  0
    6.1609    2.9124    0.6072 N   0  0  0  0  0  0  0  0  0  0  0  0
    3.6459   -2.6847   -0.3690 O   0  0  0  0  0  0  0  0  0  0  0  0
    1.0518   -0.2915   -1.0370 C   0  0  0  0  0  0  0  0  0  0  0  0
   -0.1362   -0.5746   -0.1236 C   0  0  0  0  0  0  0  0  0  0  0  0
   -0.9401   -1.8138   -0.5472 C   0  0  1  0  0  0  0  0  0  0  0  0
    1.1931   -2.6428   -1.6145 C   0  0  0  0  0  0  0  0  0  0  0  0
   -1.7495   -1.5244   -1.8196 C   0  0  0  0  0  0  0  0  0  0  0  0
   -3.0873   -1.1268    0.0591 N   0  0  0  0  0  0  0  0  0  0  0  0
   -2.0614   -2.0747    0.4816 C   0  0  1  0  0  0  0  0  0  0  0  0
   -4.1563   -1.0429    2.0599 O   0  0  0  0  0  0  0  0  0  0  0  0
   -4.8422    0.1950    0.3066 O   0  0  0  0  0  0  0  0  0  0  0  0
   -6.9796    1.5366   -1.0781 C   0  0  0  0  0  0  0  0  0  0  0  0
   -7.6770    2.4496    1.1394 C   0  0  0  0  0  0  0  0  0  0  0  0
   -5.4390    3.0425    0.2053 C   0  0  0  0  0  0  0  0  0  0  0  0
    0.4227   -3.2653    0.2857 H   0  0  0  0  0  0  0  0  0  0  0  0
   -0.4859   -3.8618   -1.0964 H   0  0  0  0  0  0  0  0  0  0  0  0
   -5.5823    1.0424    2.0524 H   0  0  0  0  0  0  0  0  0  0  0  0
   -6.6968   -0.0281    1.1891 H   0  0  0  0  0  0  0  0  0  0  0  0
    5.1898    3.2640   -2.3671 H   0  0  0  0  0  0  0  0  0  0  0  0
   -1.8346   -4.1983    0.8595 H   0  0  0  0  0  0  0  0  0  0  0  0
   -3.4438   -3.5715    1.1864 H   0  0  0  0  0  0  0  0  0  0  0  0
   -2.9263   -3.8302   -0.4801 H   0  0  0  0  0  0  0  0  0  0  0  0
   -2.7522    0.3633   -1.3998 H   0  0  0  0  0  0  0  0  0  0  0  0
   -3.8434   -0.9179   -1.9117 H   0  0  0  0  0  0  0  0  0  0  0  0
    5.5407    1.7647    3.3793 H   0  0  0  0  0  0  0  0  0  0  0  0
    5.5116    0.0064    3.4914 H   0  0  0  0  0  0  0  0  0  0  0  0
    6.9225    0.8293    2.8292 H   0  0  0  0  0  0  0  0  0  0  0  0
    4.2617   -1.1021    1.7816 H   0  0  0  0  0  0  0  0  0  0  0  0
    3.6670    0.5959   -2.1213 H   0  0  0  0  0  0  0  0  0  0  0  0
    6.6995    3.2695    1.3793 H   0  0  0  0  0  0  0  0  0  0  0  0
    1.6111    0.5492   -0.6384 H   0  0  0  0  0  0  0  0  0  0  0  0
    0.7155   -0.0032   -2.0370 H   0  0  0  0  0  0  0  0  0  0  0  0
    0.2374   -0.7212    0.8950 H   0  0  0  0  0  0  0  0  0  0  0  0
   -0.7693    0.3166   -0.0949 H   0  0  0  0  0  0  0  0  0  0  0  0
    0.8318   -2.4428   -2.6283 H   0  0  0  0  0  0  0  0  0  0  0  0
    1.8831   -3.4790   -1.6817 H   0  0  0  0  0  0  0  0  0  0  0  0
   -2.0825   -2.4608   -2.2738 H   0  0  0  0  0  0  0  0  0  0  0  0
   -1.1912   -0.9825   -2.5827 H   0  0  0  0  0  0  0  0  0  0  0  0
   -1.7130   -1.8156    1.4852 H   0  0  0  0  0  0  0  0  0  0  0  0
   -7.7287    0.7442   -1.0202 H   0  0  0  0  0  0  0  0  0  0  0  0
   -7.4378    2.3883   -1.5844 H   0  0  0  0  0  0  0  0  0  0  0  0
   -6.1628    1.1818   -1.7078 H   0  0  0  0  0  0  0  0  0  0  0  0
   -7.3718    2.7230    2.1519 H   0  0  0  0  0  0  0  0  0  0  0  0
   -8.1137    3.3361    0.6758 H   0  0  0  0  0  0  0  0  0  0  0  0
   -8.4646    1.6968    1.2192 H   0  0  0  0  0  0  0  0  0  0  0  0
   -4.5731    2.7219   -0.3755 H   0  0  0  0  0  0  0  0  0  0  0  0
   -5.8551    3.9241   -0.2857 H   0  0  0  0  0  0  0  0  0  0  0  0
   -5.0851    3.3503    1.1919 H   0  0  0  0  0  0  0  0  0  0  0  0
    5.8315    0.8426    2.8724 C   0  0  0  0  0  0  0  0  0  0  0  0
  3 17  1  0
  3 10  2  0
 17  4  1  0
 10  5  1  0
  4  5  2  0
  4 14  1  0
  5 16  1  0
 65 14  1  0
 14 15  2  0
 16  2  2  0
 15  2  1  0
  2  6  1  0
  6 18  2  0
  6  1  1  0
 19  1  1  0
 19 20  1  0
  1 22  1  0
 22  7  1  0
 21 20  1  1
 23 21  1  0
 23 12  1  0
  7 21  1  0
 21 25  1  0
 12 24  1  0
  9 30  1  6
 24 25  1  0
 24 13  1  0
 25 11  1  0
 27 13  1  0
 27  8  1  0
 13 26  2  0
  9  8  1  0
  9 28  1  0
  9 29  1  0
  7 31  1  0
  7 32  1  0
  8 33  1  0
  8 34  1  0
 10 35  1  0
 11 36  1  0
 11 37  1  0
 11 38  1  0
 12 39  1  0
 12 40  1  0
 65 41  1  0
 65 42  1  0
 65 43  1  0
 15 44  1  0
 16 45  1  0
 17 46  1  0
 19 47  1  0
 19 48  1  0
 20 49  1  0
 20 50  1  0
 22 51  1  0
 22 52  1  0
 23 53  1  0
 23 54  1  0
 25 55  1  1
 28 56  1  0
 28 57  1  0
 28 58  1  0
 29 59  1  0
 29 60  1  0
 29 61  1  0
 30 62  1  0
 30 63  1  0
 30 64  1  0
M  END
