
     RDKit          3D

 25 25  0  0  0  0  0  0  0  0999 V2000
    1.4612    1.1270    1.8006 N   0  0  0  0  0  0  0  0  0  0  0  0
    0.2165    0.4184    1.9994 C   0  0  2  0  0  0  0  0  0  0  0  0
    0.0702    0.0205    3.4591 C   0  0  0  0  0  0  0  0  0  0  0  0
    0.8668   -0.5961    4.1700 O   0  0  0  0  0  0  0  0  0  0  0  0
    0.0234   -0.8726    1.1729 C   0  0  0  0  0  0  0  0  0  0  0  0
   -0.0710   -0.5766   -0.2818 C   0  0  0  0  0  0  0  0  0  0  0  0
   -1.4012   -0.1701   -0.8041 C   0  0  0  0  0  0  0  0  0  0  0  0
    1.0031   -0.6748   -1.0854 C   0  0  0  0  0  0  0  0  0  0  0  0
   -1.4654    0.1152   -2.2397 C   0  0  0  0  0  0  0  0  0  0  0  0
    0.9681   -0.3936   -2.5360 C   0  0  0  0  0  0  0  0  0  0  0  0
   -0.3791    0.0128   -3.0345 C   0  0  0  0  0  0  0  0  0  0  0  0
   -2.3990   -0.0751   -0.0773 O   0  0  0  0  0  0  0  0  0  0  0  0
    2.0377   -0.5088   -3.2424 N   0  0  0  0  0  0  0  0  0  0  0  0
   -0.3971    0.2704   -4.3810 O   0  0  0  0  0  0  0  0  0  0  0  0
   -1.1035    0.4126    4.0184 O   0  0  0  0  0  0  0  0  0  0  0  0
    1.3914    1.7262    1.0006 H   0  0  0  0  0  0  0  0  0  0  0  0
    2.2261    0.4910    1.6804 H   0  0  0  0  0  0  0  0  0  0  0  0
   -0.6241    1.1314    1.7372 H   0  0  0  0  0  0  0  0  0  0  0  0
    0.8750   -1.5750    1.3734 H   0  0  0  0  0  0  0  0  0  0  0  0
   -0.9241   -1.3693    1.5176 H   0  0  0  0  0  0  0  0  0  0  0  0
    1.9854   -0.9793   -0.6784 H   0  0  0  0  0  0  0  0  0  0  0  0
   -2.4498    0.4170   -2.6296 H   0  0  0  0  0  0  0  0  0  0  0  0
    2.3689    0.3289   -3.6768 H   0  0  0  0  0  0  0  0  0  0  0  0
   -1.0597    0.9561   -4.5590 H   0  0  0  0  0  0  0  0  0  0  0  0
   -1.1338    0.1287    4.9475 H   0  0  0  0  0  0  0  0  0  0  0  0
  1  2  1  0
  1 16  1  0
  1 17  1  0
  2  3  1  0
  2  5  1  0
  2 18  1  6
  3  4  2  0
  3 15  1  0
  5  6  1  0
  5 19  1  0
  5 20  1  0
  6  7  1  0
  6  8  2  0
  7  9  1  0
  7 12  2  0
  8 10  1  0
  8 21  1  0
  9 11  2  0
  9 22  1  0
 10 11  1  0
 10 13  2  0
 11 14  1  0
 13 23  1  0
 14 24  1  0
 15 25  1  0
M  END
