
     RDKit          3D

 34 34  0  0  0  0  0  0  0  0999 V2000
    2.2821    1.5592   -0.0737 N   0  0  0  0  0  0  0  0  0  0  0  0
    2.2936    0.1382    0.1988 C   0  0  2  0  0  0  0  0  0  0  0  0
    3.6922   -0.4746    0.1842 C   0  0  0  0  0  0  0  0  0  0  0  0
    4.6991   -0.0990   -0.4223 O   0  0  0  0  0  0  0  0  0  0  0  0
    1.4367   -0.6686   -0.8007 C   0  0  0  0  0  0  0  0  0  0  0  0
   -0.0169   -0.4958   -0.5445 C   0  0  0  0  0  0  0  0  0  0  0  0
   -0.7191    0.5797   -1.0936 C   0  0  0  0  0  0  0  0  0  0  0  0
   -2.0795    0.7426   -0.8538 C   0  0  0  0  0  0  0  0  0  0  0  0
   -2.7890   -0.1778   -0.0507 C   0  0  0  0  0  0  0  0  0  0  0  0
   -2.0674   -1.2635    0.5029 C   0  0  0  0  0  0  0  0  0  0  0  0
   -0.7087   -1.4122    0.2546 C   0  0  0  0  0  0  0  0  0  0  0  0
   -4.1774   -0.0410    0.2159 N   0  0  0  0  0  0  0  0  0  0  0  0
   -4.7106    1.1888    0.7533 C   0  0  0  0  0  0  0  0  0  0  0  0
   -5.0914   -1.1286   -0.0577 C   0  0  0  0  0  0  0  0  0  0  0  0
    2.6665    2.3876    1.0397 C   0  0  0  0  0  0  0  0  0  0  0  0
    3.8192   -1.5888    0.9553 O   0  0  0  0  0  0  0  0  0  0  0  0
    2.8386    1.7645   -0.8838 H   0  0  0  0  0  0  0  0  0  0  0  0
    1.8740   -0.0266    1.2372 H   0  0  0  0  0  0  0  0  0  0  0  0
    2.6156    3.4599    0.7134 H   0  0  0  0  0  0  0  0  0  0  0  0
    1.9427    2.2335    1.8831 H   0  0  0  0  0  0  0  0  0  0  0  0
    3.7050    2.1750    1.4165 H   0  0  0  0  0  0  0  0  0  0  0  0
    1.6805   -0.3586   -1.8511 H   0  0  0  0  0  0  0  0  0  0  0  0
    1.7182   -1.7510   -0.6889 H   0  0  0  0  0  0  0  0  0  0  0  0
    4.7297   -1.9244    0.8995 H   0  0  0  0  0  0  0  0  0  0  0  0
   -0.1891    1.3096   -1.7249 H   0  0  0  0  0  0  0  0  0  0  0  0
   -0.1711   -2.2658    0.6956 H   0  0  0  0  0  0  0  0  0  0  0  0
   -2.5918    1.6038   -1.3076 H   0  0  0  0  0  0  0  0  0  0  0  0
   -2.5755   -2.0062    1.1372 H   0  0  0  0  0  0  0  0  0  0  0  0
   -5.0205    1.9223   -0.0414 H   0  0  0  0  0  0  0  0  0  0  0  0
   -5.6072    0.9464    1.3827 H   0  0  0  0  0  0  0  0  0  0  0  0
   -3.9367    1.6708    1.4055 H   0  0  0  0  0  0  0  0  0  0  0  0
   -4.7956   -2.0407    0.5210 H   0  0  0  0  0  0  0  0  0  0  0  0
   -6.1219   -0.8191    0.2598 H   0  0  0  0  0  0  0  0  0  0  0  0
   -5.1234   -1.3968   -1.1497 H   0  0  0  0  0  0  0  0  0  0  0  0
  1  2  1  0
  1 15  1  0
  2  3  1  0
  2  5  1  0
  3  4  2  0
  3 16  1  0
  5  6  1  0
  6  7  2  0
  6 11  1  0
  7  8  1  0
  8  9  2  0
  9 10  1  0
  9 12  1  0
 10 11  2  0
 12 13  1  0
 12 14  1  0
  1 17  1  0
  2 18  1  1
 15 19  1  0
 15 20  1  0
 15 21  1  0
  5 22  1  0
  5 23  1  0
 16 24  1  0
  7 25  1  0
 11 26  1  0
  8 27  1  0
 10 28  1  0
 13 29  1  0
 13 30  1  0
 13 31  1  0
 14 32  1  0
 14 33  1  0
 14 34  1  0
M  END
