
     RDKit          3D

 46 49  0  0  0  0  0  0  0  0999 V2000
   -4.0745   -0.7278   -1.1708 C   0  0  0  0  0  0  0  0  0  0  0  0
   -3.1869   -0.0865   -0.3237 C   0  0  0  0  0  0  0  0  0  0  0  0
   -3.7240    0.7085    0.6879 C   0  0  0  0  0  0  0  0  0  0  0  0
   -5.0865    0.8415    0.8245 C   0  0  0  0  0  0  0  0  0  0  0  0
   -5.9456    0.1875   -0.0433 C   0  0  0  0  0  0  0  0  0  0  0  0
   -5.4478   -0.6062   -1.0523 C   0  0  0  0  0  0  0  0  0  0  0  0
   -3.6040   -1.5015   -2.1568 F   0  0  0  0  0  0  0  0  0  0  0  0
   -7.2619    0.3336    0.1057 F   0  0  0  0  0  0  0  0  0  0  0  0
   -5.5987    1.6048    1.7948 F   0  0  0  0  0  0  0  0  0  0  0  0
   -1.7000   -0.2602   -0.4463 C   0  0  1  0  0  0  0  0  0  0  0  0
   -1.1201    1.0275   -0.3300 O   0  0  0  0  0  0  0  0  0  0  0  0
    0.2354    1.0719   -0.2753 C   0  0  0  0  0  0  0  0  0  0  0  0
    1.0073   -0.0227    0.0419 C   0  0  0  0  0  0  0  0  0  0  0  0
    0.3599   -1.3331    0.3911 C   0  0  0  0  0  0  0  0  0  0  0  0
   -1.1366   -1.1904    0.6287 C   0  0  2  0  0  0  0  0  0  0  0  0
   -1.7805   -2.4858    0.5276 N   0  0  0  0  0  0  0  0  0  0  0  0
    2.4223    0.1160    0.0249 C   0  0  0  0  0  0  0  0  0  0  0  0
    3.0087    1.3647   -0.2832 C   0  0  0  0  0  0  0  0  0  0  0  0
    2.1704    2.4643   -0.5670 C   0  0  0  0  0  0  0  0  0  0  0  0
    0.8125    2.3238   -0.5704 C   0  0  0  0  0  0  0  0  0  0  0  0
    3.2818   -0.9782    0.3023 C   0  0  0  0  0  0  0  0  0  0  0  0
    4.6436   -0.8415    0.2666 C   0  0  0  0  0  0  0  0  0  0  0  0
    5.2312    0.4239   -0.0499 C   0  0  0  0  0  0  0  0  0  0  0  0
    4.4202    1.4916   -0.3113 C   0  0  0  0  0  0  0  0  0  0  0  0
    5.5256   -1.8229    0.5083 O   0  0  0  0  0  0  0  0  0  0  0  0
    5.0265   -3.1027    0.8421 C   0  0  0  0  0  0  0  0  0  0  0  0
    6.5745    0.4370   -0.0614 O   0  0  0  0  0  0  0  0  0  0  0  0
    7.2202    1.6578   -0.3599 C   0  0  0  0  0  0  0  0  0  0  0  0
   -3.0755    1.2334    1.3777 H   0  0  0  0  0  0  0  0  0  0  0  0
   -6.1137   -1.1182   -1.7345 H   0  0  0  0  0  0  0  0  0  0  0  0
   -1.4450   -0.6846   -1.4246 H   0  0  0  0  0  0  0  0  0  0  0  0
    0.5198   -2.0624   -0.4114 H   0  0  0  0  0  0  0  0  0  0  0  0
    0.8192   -1.7560    1.2891 H   0  0  0  0  0  0  0  0  0  0  0  0
   -1.2934   -0.7068    1.6055 H   0  0  0  0  0  0  0  0  0  0  0  0
   -1.2731   -3.1587    1.0894 H   0  0  0  0  0  0  0  0  0  0  0  0
   -2.7085   -2.4426    0.9307 H   0  0  0  0  0  0  0  0  0  0  0  0
    2.6148    3.4242   -0.8010 H   0  0  0  0  0  0  0  0  0  0  0  0
    0.1680    3.1617   -0.8045 H   0  0  0  0  0  0  0  0  0  0  0  0
    2.8484   -1.9395    0.5387 H   0  0  0  0  0  0  0  0  0  0  0  0
    4.8370    2.4606   -0.5547 H   0  0  0  0  0  0  0  0  0  0  0  0
    5.8924   -3.7416    0.9951 H   0  0  0  0  0  0  0  0  0  0  0  0
    4.4368   -3.0809    1.7625 H   0  0  0  0  0  0  0  0  0  0  0  0
    4.4128   -3.5221    0.0405 H   0  0  0  0  0  0  0  0  0  0  0  0
    6.9509    2.0302   -1.3521 H   0  0  0  0  0  0  0  0  0  0  0  0
    6.9901    2.4307    0.3785 H   0  0  0  0  0  0  0  0  0  0  0  0
    8.2884    1.4570   -0.3374 H   0  0  0  0  0  0  0  0  0  0  0  0
 28 27  1  0
 27 23  1  0
 25 26  1  0
 25 22  1  0
 23 22  1  0
 23 24  2  0
 22 21  2  0
 24 18  1  0
 21 17  1  0
 18 17  1  0
 18 19  2  0
 17 13  2  0
 19 20  1  0
 13 12  1  0
 13 14  1  0
 20 12  2  0
 12 11  1  0
 14 15  1  0
 11 10  1  0
 15 10  1  0
 15 16  1  0
 10  2  1  0
  2  3  1  0
  2  1  2  0
  7  1  1  0
  3  4  2  0
  1  6  1  0
  4  9  1  0
  4  5  1  0
  6  5  2  0
  5  8  1  0
  3 29  1  0
  6 30  1  0
 10 31  1  6
 14 32  1  0
 14 33  1  0
 15 34  1  1
 16 35  1  0
 16 36  1  0
 19 37  1  0
 20 38  1  0
 21 39  1  0
 24 40  1  0
 26 41  1  0
 26 42  1  0
 26 43  1  0
 28 44  1  0
 28 45  1  0
 28 46  1  0
M  END
