
     RDKit          3D

 53 55  0  0  0  0  0  0  0  0999 V2000
    0.9140    0.4262    0.8278 C   0  0  0  0  0  0  0  0  0  0  0  0
    3.8555   -0.4404    0.5099 C   0  0  0  0  0  0  0  0  0  0  0  0
    5.7490    1.1989    0.7473 C   0  0  0  0  0  0  0  0  0  0  0  0
    7.8820    0.8436   -0.3087 C   0  0  0  0  0  0  0  0  0  0  0  0
   -3.7467    0.5458   -0.0720 C   0  0  0  0  0  0  0  0  0  0  0  0
   -4.1149    1.3507    0.9998 C   0  0  0  0  0  0  0  0  0  0  0  0
   -5.0667    2.3459    0.8250 C   0  0  0  0  0  0  0  0  0  0  0  0
   -5.2806    1.7393   -1.4914 C   0  0  0  0  0  0  0  0  0  0  0  0
   -4.5224   -2.0447    0.6071 C   0  0  0  0  0  0  0  0  0  0  0  0
   -4.7765   -3.5012    0.9545 C   0  0  0  0  0  0  0  0  0  0  0  0
   -1.3545    0.0060   -0.1113 C   0  0  2  0  0  0  0  0  0  0  0  0
   -0.6813   -0.6111   -1.3325 C   0  0  0  0  0  0  0  0  0  0  0  0
    0.7141   -0.0275   -1.5052 C   0  0  0  0  0  0  0  0  0  0  0  0
   -0.4691   -0.1370    1.1223 C   0  0  0  0  0  0  0  0  0  0  0  0
    5.2714   -0.0113    0.2462 C   0  0  0  0  0  0  0  0  0  0  0  0
    7.0417    1.6250    0.4746 C   0  0  0  0  0  0  0  0  0  0  0  0
    7.4181   -0.3637   -0.8145 C   0  0  0  0  0  0  0  0  0  0  0  0
    6.1235   -0.7849   -0.5388 C   0  0  0  0  0  0  0  0  0  0  0  0
   -5.6515    2.5410   -0.4197 C   0  0  0  0  0  0  0  0  0  0  0  0
   -4.3274    0.7450   -1.3195 C   0  0  0  0  0  0  0  0  0  0  0  0
   -2.7389   -0.4457    0.0938 N   0  0  0  0  0  0  0  0  0  0  0  0
    1.5197   -0.2357   -0.3146 N   0  0  0  0  0  0  0  0  0  0  0  0
   -2.1992   -2.6026    0.4918 O   0  0  0  0  0  0  0  0  0  0  0  0
    0.8426    1.5168    0.6609 H   0  0  0  0  0  0  0  0  0  0  0  0
    1.5449    0.2890    1.7071 H   0  0  0  0  0  0  0  0  0  0  0  0
    3.5714   -0.1412    1.5212 H   0  0  0  0  0  0  0  0  0  0  0  0
    3.7717   -1.5285    0.4650 H   0  0  0  0  0  0  0  0  0  0  0  0
    8.8921    1.1703   -0.5195 H   0  0  0  0  0  0  0  0  0  0  0  0
   -3.6594    1.1927    1.9697 H   0  0  0  0  0  0  0  0  0  0  0  0
   -5.3520    2.9693    1.6624 H   0  0  0  0  0  0  0  0  0  0  0  0
   -5.7328    1.8871   -2.4634 H   0  0  0  0  0  0  0  0  0  0  0  0
   -4.9106   -1.3965    1.3976 H   0  0  0  0  0  0  0  0  0  0  0  0
   -5.0834   -1.7696   -0.2895 H   0  0  0  0  0  0  0  0  0  0  0  0
   -5.8435   -3.6611    1.1069 H   0  0  0  0  0  0  0  0  0  0  0  0
   -4.4512   -4.1697    0.1583 H   0  0  0  0  0  0  0  0  0  0  0  0
   -4.2623   -3.7950    1.8687 H   0  0  0  0  0  0  0  0  0  0  0  0
   -1.4434    1.0786   -0.3090 H   0  0  0  0  0  0  0  0  0  0  0  0
   -0.6097   -1.6927   -1.2225 H   0  0  0  0  0  0  0  0  0  0  0  0
   -1.2718   -0.4045   -2.2284 H   0  0  0  0  0  0  0  0  0  0  0  0
    1.2037   -0.5123   -2.3525 H   0  0  0  0  0  0  0  0  0  0  0  0
    0.6351    1.0449   -1.7596 H   0  0  0  0  0  0  0  0  0  0  0  0
   -0.3777   -1.1829    1.4139 H   0  0  0  0  0  0  0  0  0  0  0  0
   -0.9086    0.4055    1.9631 H   0  0  0  0  0  0  0  0  0  0  0  0
    7.3936    2.5660    0.8777 H   0  0  0  0  0  0  0  0  0  0  0  0
    8.0657   -0.9805   -1.4245 H   0  0  0  0  0  0  0  0  0  0  0  0
    5.7739   -1.7311   -0.9358 H   0  0  0  0  0  0  0  0  0  0  0  0
   -6.3944    3.3162   -0.5529 H   0  0  0  0  0  0  0  0  0  0  0  0
   -4.0362    0.1148   -2.1511 H   0  0  0  0  0  0  0  0  0  0  0  0
    2.8983    0.1658   -0.5191 C   0  0  0  0  0  0  0  0  0  0  0  0
   -3.0519   -1.7339    0.3924 C   0  0  0  0  0  0  0  0  0  0  0  0
    5.1010    1.8117    1.3637 H   0  0  0  0  0  0  0  0  0  0  0  0
    3.0109    1.2637   -0.5251 H   0  0  0  0  0  0  0  0  0  0  0  0
    3.2099   -0.1803   -1.5085 H   0  0  0  0  0  0  0  0  0  0  0  0
 16  4  1  0
 16  3  2  0
  4 17  2  0
  3 15  1  0
 17 18  1  0
 15 18  2  0
 15  2  1  0
 49  2  1  0
 49 22  1  0
 13 22  1  0
 13 12  1  0
 22  1  1  0
  1 14  1  0
 23 50  2  0
 12 11  1  0
 11 14  1  0
 11 21  1  0
 50 21  1  0
 50  9  1  0
 21  5  1  0
 10  9  1  0
  5  6  2  0
  5 20  1  0
  6  7  1  0
 20  8  2  0
  7 19  2  0
  8 19  1  0
  1 24  1  0
  1 25  1  0
  2 26  1  0
  2 27  1  0
  3 51  1  0
  4 28  1  0
  6 29  1  0
  7 30  1  0
  8 31  1  0
  9 32  1  0
  9 33  1  0
 10 34  1  0
 10 35  1  0
 10 36  1  0
 11 37  1  6
 12 38  1  0
 12 39  1  0
 13 40  1  0
 13 41  1  0
 14 42  1  0
 14 43  1  0
 49 52  1  0
 49 53  1  0
 16 44  1  0
 17 45  1  0
 18 46  1  0
 19 47  1  0
 20 48  1  0
M  END
