
     RDKit          3D

 16 17  0  0  0  0  0  0  0  0999 V2000
   -2.8389   -1.0595    0.0307 C   0  0  0  0  0  0  0  0  0  0  0  0
    2.0970   -0.1722   -0.0306 C   0  0  0  0  0  0  0  0  0  0  0  0
    1.6930   -1.4675   -0.0488 C   0  0  0  0  0  0  0  0  0  0  0  0
    0.2775   -1.5780   -0.0358 C   0  0  0  0  0  0  0  0  0  0  0  0
   -0.3670   -0.3730   -0.0072 C   0  0  0  0  0  0  0  0  0  0  0  0
   -1.7903   -0.1127    0.0113 C   0  0  0  0  0  0  0  0  0  0  0  0
   -2.4462    1.1046    0.0125 C   0  0  0  0  0  0  0  0  0  0  0  0
   -3.7561    0.8275    0.0315 N   0  0  0  0  0  0  0  0  0  0  0  0
   -4.0182   -0.4730    0.0424 N   0  0  0  0  0  0  0  0  0  0  0  0
    0.7738    0.9285    0.0046 S   0  0  0  0  0  0  0  0  0  0  0  0
   -2.7648   -2.1364    0.0371 H   0  0  0  0  0  0  0  0  0  0  0  0
    2.3694   -2.3088   -0.0720 H   0  0  0  0  0  0  0  0  0  0  0  0
   -0.2390   -2.5274   -0.0486 H   0  0  0  0  0  0  0  0  0  0  0  0
   -2.0812    2.1192    0.0012 H   0  0  0  0  0  0  0  0  0  0  0  0
   -4.5127    1.4929    0.0346 H   0  0  0  0  0  0  0  0  0  0  0  0
    3.7010    0.4143   -0.0382 Cl  0  0  0  0  0  0  0  0  0  0  0  0
  4  3  1  0
  4  5  2  0
  3  2  2  0
  1  9  2  0
  1  6  1  0
  9  8  1  0
  5  6  1  0
  5 10  1  0
  6  7  2  0
  2 16  1  0
  2 10  1  0
  8  7  1  0
  1 11  1  0
  3 12  1  0
  4 13  1  0
  7 14  1  0
  8 15  1  0
M  END
