
     RDKit          3D

 66 70  0  0  0  0  0  0  0  0999 V2000
   -1.4513   -5.1691    0.1288 C   0  0  0  0  0  0  0  0  0  0  0  0
   -0.9711   -4.4901    1.2386 C   0  0  0  0  0  0  0  0  0  0  0  0
   -2.7177    0.4217   -0.6556 C   0  0  0  0  0  0  0  0  0  0  0  0
   -2.6135    1.7360   -0.1888 C   0  0  0  0  0  0  0  0  0  0  0  0
   -3.7413    2.4096    0.2556 C   0  0  0  0  0  0  0  0  0  0  0  0
   -4.9875    1.7806    0.2434 C   0  0  0  0  0  0  0  0  0  0  0  0
   -5.0810    0.4719   -0.2152 C   0  0  0  0  0  0  0  0  0  0  0  0
   -3.9511   -0.1993   -0.6658 C   0  0  0  0  0  0  0  0  0  0  0  0
   -6.2088    2.5267    0.6931 C   0  0  0  0  0  0  0  0  0  0  0  0
   -1.1364    3.5369    0.3093 C   0  0  0  0  0  0  0  0  0  0  0  0
   -0.7591   -0.9272   -0.0574 C   0  0  2  0  0  0  0  0  0  0  0  0
   -1.0673    0.0262   -2.3296 C   0  0  0  0  0  0  0  0  0  0  0  0
    0.2978   -0.5356   -2.6507 C   0  0  0  0  0  0  0  0  0  0  0  0
    1.2279   -0.4464   -1.4796 C   0  0  0  0  0  0  0  0  0  0  0  0
    0.7147   -0.6442   -0.2158 C   0  0  0  0  0  0  0  0  0  0  0  0
    1.5519   -0.5573    0.9011 C   0  0  0  0  0  0  0  0  0  0  0  0
    2.9032   -0.2910    0.7522 C   0  0  0  0  0  0  0  0  0  0  0  0
    3.4270   -0.0766   -0.5432 C   0  0  0  0  0  0  0  0  0  0  0  0
    2.5837   -0.1543   -1.6383 C   0  0  0  0  0  0  0  0  0  0  0  0
    5.3120    0.5469   -1.8497 C   0  0  0  0  0  0  0  0  0  0  0  0
   -1.7181   -6.8789    0.2234 Cl  0  0  0  0  0  0  0  0  0  0  0  0
   -0.7700   -3.1227    1.1549 C   0  0  0  0  0  0  0  0  0  0  0  0
   -1.0361   -2.4213   -0.0187 C   0  0  0  0  0  0  0  0  0  0  0  0
   -1.5291   -3.1238   -1.1108 C   0  0  0  0  0  0  0  0  0  0  0  0
   -1.7345   -4.4958   -1.0466 C   0  0  0  0  0  0  0  0  0  0  0  0
   -1.5336   -0.2328   -1.0791 N   0  0  0  0  0  0  0  0  0  0  0  0
    4.7362    0.2058   -0.5951 O   0  0  0  0  0  0  0  0  0  0  0  0
    6.7717    0.8587   -1.6240 C   0  0  0  0  0  0  0  0  0  0  0  0
    3.7831   -0.1880    1.7591 O   0  0  0  0  0  0  0  0  0  0  0  0
    3.3143   -0.3550    3.0908 C   0  0  0  0  0  0  0  0  0  0  0  0
    4.4878   -0.1953    4.0268 C   0  0  0  0  0  0  0  0  0  0  0  0
   -1.7159    0.6619   -3.1401 O   0  0  0  0  0  0  0  0  0  0  0  0
   -1.3668    2.2502   -0.2090 O   0  0  0  0  0  0  0  0  0  0  0  0
    0.3338    3.7437    0.2568 C   0  0  0  0  0  0  0  0  0  0  0  0
    1.2509    2.7776    0.2878 N   0  0  0  0  0  0  0  0  0  0  0  0
    2.4521    3.3278    0.2625 N   0  0  0  0  0  0  0  0  0  0  0  0
    2.2699    4.5876    0.2228 N   0  0  0  0  0  0  0  0  0  0  0  0
    0.9687    4.8869    0.2142 N   0  0  0  0  0  0  0  0  0  0  0  0
   -0.7650   -5.0152    2.1612 H   0  0  0  0  0  0  0  0  0  0  0  0
   -3.6739    3.4285    0.6171 H   0  0  0  0  0  0  0  0  0  0  0  0
   -6.0406   -0.0294   -0.2300 H   0  0  0  0  0  0  0  0  0  0  0  0
   -4.0303   -1.2173   -1.0259 H   0  0  0  0  0  0  0  0  0  0  0  0
   -6.7068    2.9983   -0.1563 H   0  0  0  0  0  0  0  0  0  0  0  0
   -6.9315    1.8611    1.1635 H   0  0  0  0  0  0  0  0  0  0  0  0
   -5.9607    3.3157    1.4020 H   0  0  0  0  0  0  0  0  0  0  0  0
   -1.6345    4.3162   -0.2742 H   0  0  0  0  0  0  0  0  0  0  0  0
   -1.4779    3.6220    1.3471 H   0  0  0  0  0  0  0  0  0  0  0  0
   -1.0745   -0.5141    0.9043 H   0  0  0  0  0  0  0  0  0  0  0  0
    0.1781   -1.5806   -2.9624 H   0  0  0  0  0  0  0  0  0  0  0  0
    0.6887    0.0001   -3.5151 H   0  0  0  0  0  0  0  0  0  0  0  0
    1.1282   -0.6936    1.8876 H   0  0  0  0  0  0  0  0  0  0  0  0
    2.9591    0.0258   -2.6370 H   0  0  0  0  0  0  0  0  0  0  0  0
    5.2024   -0.2833   -2.5554 H   0  0  0  0  0  0  0  0  0  0  0  0
    4.7941    1.4135   -2.2740 H   0  0  0  0  0  0  0  0  0  0  0  0
   -0.4094   -2.6003    2.0324 H   0  0  0  0  0  0  0  0  0  0  0  0
   -1.7837   -2.6155   -2.0310 H   0  0  0  0  0  0  0  0  0  0  0  0
   -2.1227   -5.0244   -1.9064 H   0  0  0  0  0  0  0  0  0  0  0  0
    6.8989    1.6932   -0.9344 H   0  0  0  0  0  0  0  0  0  0  0  0
    7.3083   -0.0046   -1.2305 H   0  0  0  0  0  0  0  0  0  0  0  0
    7.2326    1.1341   -2.5720 H   0  0  0  0  0  0  0  0  0  0  0  0
    2.5420    0.3894    3.3131 H   0  0  0  0  0  0  0  0  0  0  0  0
    2.8628   -1.3458    3.2106 H   0  0  0  0  0  0  0  0  0  0  0  0
    4.1450   -0.3144    5.0541 H   0  0  0  0  0  0  0  0  0  0  0  0
    5.2528   -0.9483    3.8385 H   0  0  0  0  0  0  0  0  0  0  0  0
    4.9397    0.7925    3.9373 H   0  0  0  0  0  0  0  0  0  0  0  0
    1.1375    1.7704    0.3297 H   0  0  0  0  0  0  0  0  0  0  0  0
 31 30  1  0
 30 29  1  0
 29 17  1  0
 21  1  1  0
 28 20  1  0
 17 16  2  0
 17 18  1  0
 27 20  1  0
 27 18  1  0
  2  1  2  0
  2 22  1  0
 16 15  1  0
  1 25  1  0
 18 19  2  0
 37 36  2  0
 37 38  1  0
 22 23  2  0
 25 24  2  0
 36 35  1  0
 38 34  2  0
 23 24  1  0
 23 11  1  0
 15 11  1  0
 15 14  2  0
 19 14  1  0
 11 26  1  0
 14 13  1  0
 35 34  1  0
 34 10  1  0
 26  3  1  0
 26 12  1  0
 13 12  1  0
 33 10  1  0
 33  4  1  0
  3  4  1  0
  3  8  2  0
  4  5  2  0
 12 32  2  0
  8  7  1  0
  5  6  1  0
  7  6  2  0
  6  9  1  0
  2 39  1  0
  5 40  1  0
  7 41  1  0
  8 42  1  0
  9 43  1  0
  9 44  1  0
  9 45  1  0
 10 46  1  0
 10 47  1  0
 11 48  1  1
 13 49  1  0
 13 50  1  0
 16 51  1  0
 19 52  1  0
 20 53  1  0
 20 54  1  0
 22 55  1  0
 24 56  1  0
 25 57  1  0
 28 58  1  0
 28 59  1  0
 28 60  1  0
 30 61  1  0
 30 62  1  0
 31 63  1  0
 31 64  1  0
 31 65  1  0
 35 66  1  0
M  END
