
     RDKit          3D

 42 45  0  0  0  0  0  0  0  0999 V2000
    0.8903    0.0520    2.1550 C   0  0  0  0  0  0  0  0  0  0  0  0
   -0.1870   -0.0122    0.8099 S   0  0  0  0  0  0  0  0  0  0  0  0
    1.1078    0.0913   -0.3194 C   0  0  0  0  0  0  0  0  0  0  0  0
    2.3156    0.1662    0.3227 C   0  0  0  0  0  0  0  0  0  0  0  0
    2.1901    0.1425    1.7257 C   0  0  0  0  0  0  0  0  0  0  0  0
    0.8944    0.0976   -1.7471 C   0  0  0  0  0  0  0  0  0  0  0  0
    1.8580    0.2179   -2.6270 N   0  0  0  0  0  0  0  0  0  0  0  0
    1.2385    0.1753   -3.8455 C   0  0  0  0  0  0  0  0  0  0  0  0
   -0.1499    0.0258   -3.6795 C   0  0  0  0  0  0  0  0  0  0  0  0
   -0.3327   -0.0202   -2.3238 N   0  0  0  0  0  0  0  0  0  0  0  0
    1.7695    0.2558   -5.1322 C   0  0  0  0  0  0  0  0  0  0  0  0
    0.8985    0.1732   -6.2011 C   0  0  0  0  0  0  0  0  0  0  0  0
   -0.4906    0.0163   -6.0217 C   0  0  0  0  0  0  0  0  0  0  0  0
   -1.0316   -0.0507   -4.7440 C   0  0  0  0  0  0  0  0  0  0  0  0
    0.3885    0.0094    3.5243 C   0  0  0  0  0  0  0  0  0  0  0  0
   -0.9424    0.3081    3.8277 C   0  0  0  0  0  0  0  0  0  0  0  0
   -1.3994    0.2662    5.1320 C   0  0  0  0  0  0  0  0  0  0  0  0
   -0.5414   -0.0614    6.1790 C   0  0  0  0  0  0  0  0  0  0  0  0
    0.7887   -0.3542    5.8812 C   0  0  0  0  0  0  0  0  0  0  0  0
    1.2444   -0.3282    4.5756 C   0  0  0  0  0  0  0  0  0  0  0  0
   -1.4123   -0.0732   -7.1880 C   0  0  0  0  0  0  0  0  0  0  0  0
   -0.8404   -0.5039   -8.3517 N   0  0  0  0  0  0  0  0  0  0  0  0
   -2.6303    0.2847   -7.0390 N   0  0  0  0  0  0  0  0  0  0  0  0
   -1.0548   -0.1103    7.5763 C   0  0  0  0  0  0  0  0  0  0  0  0
   -2.2359   -0.4749    7.9017 N   0  0  0  0  0  0  0  0  0  0  0  0
   -0.1456    0.2258    8.5339 N   0  0  0  0  0  0  0  0  0  0  0  0
    3.2572    0.2420   -0.2014 H   0  0  0  0  0  0  0  0  0  0  0  0
    3.0341    0.2093    2.3970 H   0  0  0  0  0  0  0  0  0  0  0  0
   -1.2180   -0.1382   -1.8547 H   0  0  0  0  0  0  0  0  0  0  0  0
    2.8325    0.3826   -5.2892 H   0  0  0  0  0  0  0  0  0  0  0  0
    1.3018    0.2547   -7.2020 H   0  0  0  0  0  0  0  0  0  0  0  0
   -2.0973   -0.1672   -4.6017 H   0  0  0  0  0  0  0  0  0  0  0  0
   -1.6343    0.5979    3.0460 H   0  0  0  0  0  0  0  0  0  0  0  0
   -2.4329    0.5194    5.3321 H   0  0  0  0  0  0  0  0  0  0  0  0
    1.4766   -0.6318    6.6693 H   0  0  0  0  0  0  0  0  0  0  0  0
    2.2751   -0.5904    4.3772 H   0  0  0  0  0  0  0  0  0  0  0  0
   -1.4585   -0.7166   -9.1188 H   0  0  0  0  0  0  0  0  0  0  0  0
   -0.0444   -1.1175   -8.2939 H   0  0  0  0  0  0  0  0  0  0  0  0
   -3.1638    0.1318   -7.8906 H   0  0  0  0  0  0  0  0  0  0  0  0
   -2.7527   -0.7903    7.0893 H   0  0  0  0  0  0  0  0  0  0  0  0
   -0.5024    0.3223    9.4714 H   0  0  0  0  0  0  0  0  0  0  0  0
    0.5825    0.8792    8.2981 H   0  0  0  0  0  0  0  0  0  0  0  0
  1  2  1  0
  1  5  2  0
  1 15  1  0
  2  3  1  0
  3  4  2  0
  3  6  1  0
  4  5  1  0
  4 27  1  0
  5 28  1  0
  6  7  2  0
  6 10  1  0
  7  8  1  0
  8  9  2  0
  8 11  1  0
  9 10  1  0
  9 14  1  0
 10 29  1  0
 11 12  2  0
 11 30  1  0
 12 13  1  0
 12 31  1  0
 13 14  2  0
 13 21  1  0
 14 32  1  0
 15 16  2  0
 15 20  1  0
 16 17  1  0
 16 33  1  0
 17 18  2  0
 17 34  1  0
 18 19  1  0
 18 24  1  0
 19 20  2  0
 19 35  1  0
 20 36  1  0
 21 22  1  0
 21 23  2  0
 22 37  1  0
 22 38  1  0
 23 39  1  0
 24 25  2  0
 24 26  1  0
 25 40  1  0
 26 41  1  0
 26 42  1  0
M  END
