
     RDKit          3D

 22 22  0  0  0  0  0  0  0  0999 V2000
    0.5269    0.8352    0.2323 C   0  0  0  0  0  0  0  0  0  0  0  0
    1.8330    0.9734   -0.0089 N   0  0  0  0  0  0  0  0  0  0  0  0
   -3.1018    1.5820   -0.1663 O   0  0  0  0  0  0  0  0  0  0  0  0
    2.5719   -0.1202   -0.1399 C   0  0  0  0  0  0  0  0  0  0  0  0
    2.1313   -1.3674   -0.0486 N   0  0  0  0  0  0  0  0  0  0  0  0
    0.8251   -1.5011    0.1963 C   0  0  0  0  0  0  0  0  0  0  0  0
   -0.1894    1.9560    0.3910 N   0  0  0  0  0  0  0  0  0  0  0  0
   -0.0502   -0.4544    0.3447 C   0  0  0  0  0  0  0  0  0  0  0  0
   -2.3556   -0.5321   -0.5525 N   0  0  0  0  0  0  0  0  0  0  0  0
    4.0329    0.0862   -0.3926 C   0  0  0  0  0  0  0  0  0  0  0  0
   -1.5076   -0.6909    0.6154 C   0  0  0  0  0  0  0  0  0  0  0  0
   -3.0819    0.5510   -0.8275 C   0  0  0  0  0  0  0  0  0  0  0  0
    0.4545   -2.5193    0.2821 H   0  0  0  0  0  0  0  0  0  0  0  0
   -1.2005    1.9452    0.3995 H   0  0  0  0  0  0  0  0  0  0  0  0
    0.2612    2.8384    0.2168 H   0  0  0  0  0  0  0  0  0  0  0  0
   -2.4071   -1.3031   -1.1992 H   0  0  0  0  0  0  0  0  0  0  0  0
    4.5229    0.4561    0.5103 H   0  0  0  0  0  0  0  0  0  0  0  0
    4.5158   -0.8438   -0.6828 H   0  0  0  0  0  0  0  0  0  0  0  0
    4.1925    0.8308   -1.1719 H   0  0  0  0  0  0  0  0  0  0  0  0
   -1.6377   -1.7107    0.9785 H   0  0  0  0  0  0  0  0  0  0  0  0
   -1.8771   -0.0334    1.4037 H   0  0  0  0  0  0  0  0  0  0  0  0
   -3.6865    0.4295   -1.7361 H   0  0  0  0  0  0  0  0  0  0  0  0
  2  1  2  0
  7  1  1  0
  1  8  1  0
  2  4  1  0
 12  3  2  0
 10  4  1  0
  4  5  2  0
  5  6  1  0
  8  6  2  0
  6 13  1  0
  7 14  1  0
  7 15  1  0
  8 11  1  0
  9 11  1  0
  9 12  1  0
  9 16  1  0
 10 17  1  0
 10 18  1  0
 10 19  1  0
 11 20  1  0
 11 21  1  0
 12 22  1  0
M  END
