
     RDKit          3D

 69 73  0  0  0  0  0  0  0  0999 V2000
    6.2264   -0.2991    0.8730 C   0  0  0  0  0  0  0  0  0  0  0  0
    1.2188   -0.5208    1.1139 C   0  0  0  0  0  0  0  0  0  0  0  0
   -1.1537   -0.3707    0.7701 C   0  0  0  0  0  0  0  0  0  0  0  0
   -2.3189    0.1902    0.0918 C   0  0  0  0  0  0  0  0  0  0  0  0
   -3.4770   -0.3920   -0.3410 C   0  0  0  0  0  0  0  0  0  0  0  0
   -3.9870    1.6841   -0.8594 C   0  0  0  0  0  0  0  0  0  0  0  0
   -7.0221    2.2436   -1.0693 C   0  0  0  0  0  0  0  0  0  0  0  0
   10.6452    0.4563   -3.2998 C   0  0  0  0  0  0  0  0  0  0  0  0
    9.0189    0.5137   -1.5776 C   0  0  0  0  0  0  0  0  0  0  0  0
    9.3501    1.8063   -1.2039 C   0  0  0  0  0  0  0  0  0  0  0  0
    8.6734    2.4210   -0.1504 C   0  0  0  0  0  0  0  0  0  0  0  0
    7.6682    1.7562    0.5342 C   0  0  0  0  0  0  0  0  0  0  0  0
    7.2787    3.5990    1.9809 C   0  0  0  0  0  0  0  0  0  0  0  0
    7.3256    0.4444    0.1647 C   0  0  0  0  0  0  0  0  0  0  0  0
    4.8483    0.1655    0.4125 C   0  0  0  0  0  0  0  0  0  0  0  0
    3.7146   -0.5853    1.0810 C   0  0  0  0  0  0  0  0  0  0  0  0
    0.1293    0.0232    0.4240 C   0  0  0  0  0  0  0  0  0  0  0  0
   -1.2924   -1.2996    1.8078 C   0  0  0  0  0  0  0  0  0  0  0  0
   -0.1494   -1.7764    2.4128 C   0  0  0  0  0  0  0  0  0  0  0  0
   -7.0733    2.6662    0.2577 C   0  0  0  0  0  0  0  0  0  0  0  0
   -8.2054    2.4159    1.0202 C   0  0  0  0  0  0  0  0  0  0  0  0
   -9.2979    1.7492    0.4823 C   0  0  0  0  0  0  0  0  0  0  0  0
   -9.2434    1.3311   -0.8418 C   0  0  0  0  0  0  0  0  0  0  0  0
   -8.1178    1.5713   -1.6128 C   0  0  0  0  0  0  0  0  0  0  0  0
   -3.8050   -1.8243   -0.3243 C   0  0  0  0  0  0  0  0  0  0  0  0
   -5.1230   -2.2199   -0.0927 C   0  0  0  0  0  0  0  0  0  0  0  0
   -5.4738   -3.5602   -0.0796 C   0  0  0  0  0  0  0  0  0  0  0  0
   -4.4913   -4.5027   -0.3150 C   0  0  0  0  0  0  0  0  0  0  0  0
   -3.1802   -4.1485   -0.5707 C   0  0  0  0  0  0  0  0  0  0  0  0
   -2.8453   -2.8039   -0.5773 C   0  0  0  0  0  0  0  0  0  0  0  0
    8.0057   -0.1512   -0.8820 C   0  0  0  0  0  0  0  0  0  0  0  0
   -4.8237   -5.8023   -0.3062 F   0  0  0  0  0  0  0  0  0  0  0  0
    2.4846   -0.0869    0.7406 N   0  0  0  0  0  0  0  0  0  0  0  0
    1.0865   -1.4025    2.0880 N   0  0  0  0  0  0  0  0  0  0  0  0
   -4.4085    0.4613   -0.8663 N   0  0  0  0  0  0  0  0  0  0  0  0
   -4.7218    2.7390   -1.2897 N   0  0  0  0  0  0  0  0  0  0  0  0
   -5.9302    2.5233   -1.8947 N   0  0  0  0  0  0  0  0  0  0  0  0
    9.6085   -0.1757   -2.5809 O   0  0  0  0  0  0  0  0  0  0  0  0
    6.9683    2.2877    1.5633 O   0  0  0  0  0  0  0  0  0  0  0  0
    3.8891   -1.5268    1.8225 O   0  0  0  0  0  0  0  0  0  0  0  0
   -2.3952    1.9072   -0.2054 S   0  0  0  0  0  0  0  0  0  0  0  0
    6.3355   -1.3656    0.6728 H   0  0  0  0  0  0  0  0  0  0  0  0
    6.3163   -0.1724    1.9534 H   0  0  0  0  0  0  0  0  0  0  0  0
   10.2998    1.3609   -3.8086 H   0  0  0  0  0  0  0  0  0  0  0  0
   11.4899    0.7186   -2.6562 H   0  0  0  0  0  0  0  0  0  0  0  0
   10.9851   -0.2553   -4.0489 H   0  0  0  0  0  0  0  0  0  0  0  0
   10.1268    2.3660   -1.7069 H   0  0  0  0  0  0  0  0  0  0  0  0
    8.9581    3.4306    0.1131 H   0  0  0  0  0  0  0  0  0  0  0  0
    8.3121    3.6855    2.3282 H   0  0  0  0  0  0  0  0  0  0  0  0
    7.1124    4.3331    1.1875 H   0  0  0  0  0  0  0  0  0  0  0  0
    6.6128    3.8272    2.8098 H   0  0  0  0  0  0  0  0  0  0  0  0
    4.7230    1.2353    0.5975 H   0  0  0  0  0  0  0  0  0  0  0  0
    4.7543    0.0355   -0.6706 H   0  0  0  0  0  0  0  0  0  0  0  0
    0.2949    0.7247   -0.3850 H   0  0  0  0  0  0  0  0  0  0  0  0
   -2.2653   -1.6286    2.1432 H   0  0  0  0  0  0  0  0  0  0  0  0
   -0.2288   -2.4951    3.2204 H   0  0  0  0  0  0  0  0  0  0  0  0
   -6.2332    3.1875    0.6968 H   0  0  0  0  0  0  0  0  0  0  0  0
   -8.2294    2.7494    2.0501 H   0  0  0  0  0  0  0  0  0  0  0  0
  -10.1754    1.5561    1.0850 H   0  0  0  0  0  0  0  0  0  0  0  0
  -10.0822    0.8059   -1.2806 H   0  0  0  0  0  0  0  0  0  0  0  0
   -8.0857    1.2337   -2.6425 H   0  0  0  0  0  0  0  0  0  0  0  0
   -5.8835   -1.4703    0.0814 H   0  0  0  0  0  0  0  0  0  0  0  0
   -6.4948   -3.8647    0.1089 H   0  0  0  0  0  0  0  0  0  0  0  0
   -2.4350   -4.9065   -0.7730 H   0  0  0  0  0  0  0  0  0  0  0  0
   -1.8258   -2.5229   -0.8040 H   0  0  0  0  0  0  0  0  0  0  0  0
    7.7492   -1.1648   -1.1700 H   0  0  0  0  0  0  0  0  0  0  0  0
    2.4910    0.6682    0.0716 H   0  0  0  0  0  0  0  0  0  0  0  0
   -4.2746    3.6186   -1.4922 H   0  0  0  0  0  0  0  0  0  0  0  0
   -5.8651    1.9193   -2.7046 H   0  0  0  0  0  0  0  0  0  0  0  0
 20 21  2  0
 20  7  1  0
 21 22  1  0
 37  7  1  0
 37 36  1  0
  7 24  2  0
 22 23  2  0
 24 23  1  0
 36  6  1  0
  6 35  2  0
  6 41  1  0
 35  5  1  0
 41  4  1  0
 30 29  2  0
 30 25  1  0
  5 25  1  0
  5  4  2  0
 29 28  1  0
 25 26  2  0
  4  3  1  0
 28 32  1  0
 28 27  2  0
 26 27  1  0
  3 17  2  0
  3 18  1  0
 17  2  1  0
 40 16  2  0
 18 19  2  0
 13 39  1  0
 16 33  1  0
 16 15  1  0
  2 33  1  0
  2 34  2  0
  1 15  1  0
  1 14  1  0
 39 12  1  0
 19 34  1  0
 14 12  2  0
 14 31  1  0
 12 11  1  0
 31  9  2  0
 11 10  2  0
  9 10  1  0
  9 38  1  0
  8 38  1  0
  1 42  1  0
  1 43  1  0
  8 44  1  0
  8 45  1  0
  8 46  1  0
 10 47  1  0
 11 48  1  0
 13 49  1  0
 13 50  1  0
 13 51  1  0
 15 52  1  0
 15 53  1  0
 17 54  1  0
 18 55  1  0
 19 56  1  0
 20 57  1  0
 21 58  1  0
 22 59  1  0
 23 60  1  0
 24 61  1  0
 26 62  1  0
 27 63  1  0
 29 64  1  0
 30 65  1  0
 31 66  1  0
 33 67  1  0
 36 68  1  0
 37 69  1  0
M  END
