
     RDKit          3D

 36 38  0  0  0  0  0  0  0  0999 V2000
   -3.8770    0.2957    0.1322 C   0  0  0  0  0  0  0  0  0  0  0  0
   -3.1366   -0.2526    1.1795 C   0  0  0  0  0  0  0  0  0  0  0  0
   -1.7545   -0.2455    1.1287 C   0  0  0  0  0  0  0  0  0  0  0  0
   -1.0964    0.2918    0.0292 C   0  0  0  0  0  0  0  0  0  0  0  0
   -1.8311    0.8312   -1.0167 C   0  0  0  0  0  0  0  0  0  0  0  0
   -3.2155    0.8409   -0.9660 C   0  0  0  0  0  0  0  0  0  0  0  0
    2.4190   -0.4431   -0.1579 N   0  0  0  0  0  0  0  0  0  0  0  0
    1.1581   -0.7546   -0.1382 C   0  0  0  0  0  0  0  0  0  0  0  0
    0.6172   -1.9448   -0.2372 O   0  0  0  0  0  0  0  0  0  0  0  0
   -5.2173    0.2733    0.2344 O   0  0  0  0  0  0  0  0  0  0  0  0
    2.4392    0.9319   -0.0509 C   0  0  0  0  0  0  0  0  0  0  0  0
    3.5149    1.8119   -0.0180 C   0  0  0  0  0  0  0  0  0  0  0  0
    3.2451    3.1685    0.1018 C   0  0  0  0  0  0  0  0  0  0  0  0
    1.9342    3.6463    0.1894 C   0  0  0  0  0  0  0  0  0  0  0  0
    1.5012   -3.0896   -0.3041 C   0  0  1  0  0  0  0  0  0  0  0  0
    0.8471    2.7817    0.1590 C   0  0  0  0  0  0  0  0  0  0  0  0
    1.1305    1.4325    0.0369 C   0  0  0  0  0  0  0  0  0  0  0  0
    1.9583   -3.4713    1.0897 C   0  0  0  0  0  0  0  0  0  0  0  0
    0.3173    0.3155   -0.0167 N   0  0  0  0  0  0  0  0  0  0  0  0
    0.7169   -4.1893   -0.9855 C   0  0  0  0  0  0  0  0  0  0  0  0
   -3.6463   -0.6760    2.0353 H   0  0  0  0  0  0  0  0  0  0  0  0
   -3.7769    1.2687   -1.7882 H   0  0  0  0  0  0  0  0  0  0  0  0
   -5.6242    0.6718   -0.5434 H   0  0  0  0  0  0  0  0  0  0  0  0
   -1.1876   -0.6579    1.9532 H   0  0  0  0  0  0  0  0  0  0  0  0
   -1.3237    1.2467   -1.8778 H   0  0  0  0  0  0  0  0  0  0  0  0
    2.3643   -2.8192   -0.9167 H   0  0  0  0  0  0  0  0  0  0  0  0
    4.5321    1.4475   -0.0850 H   0  0  0  0  0  0  0  0  0  0  0  0
    4.0659    3.8730    0.1288 H   0  0  0  0  0  0  0  0  0  0  0  0
    1.7615    4.7105    0.2815 H   0  0  0  0  0  0  0  0  0  0  0  0
   -0.1683    3.1508    0.2252 H   0  0  0  0  0  0  0  0  0  0  0  0
    1.1131   -3.7717    1.7110 H   0  0  0  0  0  0  0  0  0  0  0  0
    2.6463   -4.3144    1.0274 H   0  0  0  0  0  0  0  0  0  0  0  0
    2.4822   -2.6528    1.5823 H   0  0  0  0  0  0  0  0  0  0  0  0
    0.4050   -3.8957   -1.9877 H   0  0  0  0  0  0  0  0  0  0  0  0
    1.3431   -5.0764   -1.0768 H   0  0  0  0  0  0  0  0  0  0  0  0
   -0.1686   -4.4633   -0.4099 H   0  0  0  0  0  0  0  0  0  0  0  0
  1  2  2  0
  1  6  1  0
  1 10  1  0
  2  3  1  0
  3  4  2  0
  4  5  1  0
  4 19  1  0
  5  6  2  0
  7  8  2  0
  7 11  1  0
  8  9  1  0
  8 19  1  0
  9 15  1  0
 11 12  2  0
 11 17  1  0
 12 13  1  0
 13 14  2  0
 14 16  1  0
 16 17  2  0
 17 19  1  0
 15 18  1  0
 15 20  1  0
  2 21  1  0
  6 22  1  0
 10 23  1  0
  3 24  1  0
  5 25  1  0
 15 26  1  6
 12 27  1  0
 13 28  1  0
 14 29  1  0
 16 30  1  0
 18 31  1  0
 18 32  1  0
 18 33  1  0
 20 34  1  0
 20 35  1  0
 20 36  1  0
M  END
