
     RDKit          3D

 26 28  0  0  0  0  0  0  0  0999 V2000
    3.0621    1.7831   -0.3140 C   0  0  0  0  0  0  0  0  0  0  0  0
    1.2164   -0.2461   -0.0733 C   0  0  0  0  0  0  0  0  0  0  0  0
   -2.8973    1.5123   -1.4983 O   0  0  0  0  0  0  0  0  0  0  0  0
   -2.1871    1.0575   -0.6165 C   0  0  0  0  0  0  0  0  0  0  0  0
   -2.2763   -0.4168   -0.2637 C   0  0  0  0  0  0  0  0  0  0  0  0
   -1.2926   -0.9049    0.6939 N   0  0  0  0  0  0  0  0  0  0  0  0
   -1.0286    0.0657    1.7565 C   0  0  0  0  0  0  0  0  0  0  0  0
   -0.4246    1.2997    1.1172 C   0  0  2  0  0  0  0  0  0  0  0  0
   -1.3518    1.8099    0.1185 N   0  0  0  0  0  0  0  0  0  0  0  0
    0.9134    1.0029    0.4673 C   0  0  0  0  0  0  0  0  0  0  0  0
    1.8594    2.0129    0.3364 C   0  0  0  0  0  0  0  0  0  0  0  0
    3.3422    0.5323   -0.8494 C   0  0  0  0  0  0  0  0  0  0  0  0
    2.4190   -0.4921   -0.7240 C   0  0  0  0  0  0  0  0  0  0  0  0
    0.0989   -1.6071    0.1291 S   0  0  2  0  0  0  0  0  0  0  0  0
    0.6215   -2.4445    1.1933 O   0  0  0  0  0  0  0  0  0  0  0  0
   -0.1779   -2.2120   -1.1617 O   0  0  0  0  0  0  0  0  0  0  0  0
    3.7840    2.5835   -0.4034 H   0  0  0  0  0  0  0  0  0  0  0  0
   -3.2677   -0.5842    0.1660 H   0  0  0  0  0  0  0  0  0  0  0  0
   -2.2421   -1.0003   -1.1811 H   0  0  0  0  0  0  0  0  0  0  0  0
   -1.9723    0.3008    2.2499 H   0  0  0  0  0  0  0  0  0  0  0  0
   -0.3652   -0.3572    2.5094 H   0  0  0  0  0  0  0  0  0  0  0  0
   -0.2893    2.0748    1.8721 H   0  0  0  0  0  0  0  0  0  0  0  0
   -1.2667    2.7831   -0.1400 H   0  0  0  0  0  0  0  0  0  0  0  0
    1.6499    2.9917    0.7504 H   0  0  0  0  0  0  0  0  0  0  0  0
    4.2779    0.3526   -1.3607 H   0  0  0  0  0  0  0  0  0  0  0  0
    2.6382   -1.4693   -1.1353 H   0  0  0  0  0  0  0  0  0  0  0  0
  7  8  1  0
  7  6  1  0
 15 14  2  0
  8 10  1  0
  8  9  1  0
  6 14  1  0
  6  5  1  0
 14  2  1  6
 14 16  2  0
 10  2  2  0
 10 11  1  0
  9  4  1  0
  5  4  1  0
  2 13  1  0
 11  1  2  0
  4  3  2  0
 13 12  2  0
  1 12  1  0
  1 17  1  0
  5 18  1  0
  5 19  1  0
  7 20  1  0
  7 21  1  0
  8 22  1  1
  9 23  1  0
 11 24  1  0
 12 25  1  0
 13 26  1  0
M  END
