
     RDKit          3D

 53 56  0  0  0  0  0  0  0  0999 V2000
    2.9708   -0.8633   -1.1068 N   0  0  0  0  0  0  0  0  0  0  0  0
    3.2307    0.3218   -0.3075 C   0  0  0  0  0  0  0  0  0  0  0  0
    2.8190   -0.0809    1.1113 C   0  0  2  0  0  0  0  0  0  0  0  0
    3.9921   -0.5329    1.9485 C   0  0  1  0  0  0  0  0  0  0  0  0
    3.3199   -1.0209   -2.3978 C   0  0  0  0  0  0  0  0  0  0  0  0
   -4.0013   -1.8471   -0.2810 C   0  0  0  0  0  0  0  0  0  0  0  0
   -2.6960   -2.2892   -0.0137 C   0  0  0  0  0  0  0  0  0  0  0  0
   -2.7011   -3.7167   -0.0787 C   0  0  0  0  0  0  0  0  0  0  0  0
   -3.0072    2.7215    0.0994 C   0  0  0  0  0  0  0  0  0  0  0  0
    1.7769   -1.1908    0.8896 C   0  0  2  0  0  0  0  0  0  0  0  0
    2.2482   -1.8964   -0.3822 C   0  0  0  0  0  0  0  0  0  0  0  0
    3.6084   -0.9201    3.1722 F   0  0  0  0  0  0  0  0  0  0  0  0
    4.6576   -1.5634    1.4056 F   0  0  0  0  0  0  0  0  0  0  0  0
    4.8856    0.4524    2.1174 F   0  0  0  0  0  0  0  0  0  0  0  0
    3.9962    0.1624   -3.0557 C   0  0  0  0  0  0  0  0  0  0  0  0
    4.3534   -0.0827   -4.5107 C   0  0  0  0  0  0  0  0  0  0  0  0
    3.0881   -2.0636   -2.9966 O   0  0  0  0  0  0  0  0  0  0  0  0
    0.4129   -0.5393    0.7208 C   0  0  0  0  0  0  0  0  0  0  0  0
   -0.5297   -1.5811    0.4970 O   0  0  0  0  0  0  0  0  0  0  0  0
   -1.7874   -1.2585    0.2313 C   0  0  0  0  0  0  0  0  0  0  0  0
   -2.1525    0.0035    0.2062 N   0  0  0  0  0  0  0  0  0  0  0  0
   -3.4358    0.2893   -0.0666 C   0  0  0  0  0  0  0  0  0  0  0  0
   -4.4057   -0.5808   -0.3158 N   0  0  0  0  0  0  0  0  0  0  0  0
   -3.9803   -4.0733   -0.3760 C   0  0  0  0  0  0  0  0  0  0  0  0
   -4.7613   -2.9431   -0.4975 N   0  0  0  0  0  0  0  0  0  0  0  0
   -3.7983    1.5980   -0.0923 N   0  0  0  0  0  0  0  0  0  0  0  0
   -3.4386    4.0172   -0.1102 C   0  0  0  0  0  0  0  0  0  0  0  0
   -2.4031    4.8227    0.1979 N   0  0  0  0  0  0  0  0  0  0  0  0
   -1.3379    4.1479    0.5870 N   0  0  0  0  0  0  0  0  0  0  0  0
   -1.6767    2.8678    0.5381 C   0  0  0  0  0  0  0  0  0  0  0  0
   -2.3787    6.2644    0.1504 C   0  0  0  0  0  0  0  0  0  0  0  0
    4.2731    0.6372   -0.3762 H   0  0  0  0  0  0  0  0  0  0  0  0
    2.6263    1.1697   -0.6402 H   0  0  0  0  0  0  0  0  0  0  0  0
    2.3856    0.7751    1.6370 H   0  0  0  0  0  0  0  0  0  0  0  0
   -1.8719   -4.3880    0.0727 H   0  0  0  0  0  0  0  0  0  0  0  0
    1.7241   -1.8877    1.7283 H   0  0  0  0  0  0  0  0  0  0  0  0
    1.4149   -2.2778   -0.9720 H   0  0  0  0  0  0  0  0  0  0  0  0
    2.8934   -2.7469   -0.1530 H   0  0  0  0  0  0  0  0  0  0  0  0
    3.3370    1.0327   -2.9716 H   0  0  0  0  0  0  0  0  0  0  0  0
    4.8931    0.4251   -2.4871 H   0  0  0  0  0  0  0  0  0  0  0  0
    4.8124    0.8097   -4.9346 H   0  0  0  0  0  0  0  0  0  0  0  0
    5.0618   -0.9030   -4.6200 H   0  0  0  0  0  0  0  0  0  0  0  0
    3.4730   -0.3180   -5.1070 H   0  0  0  0  0  0  0  0  0  0  0  0
    0.1479    0.0169    1.6239 H   0  0  0  0  0  0  0  0  0  0  0  0
    0.4076    0.1595   -0.1213 H   0  0  0  0  0  0  0  0  0  0  0  0
   -4.4120   -5.0502   -0.5167 H   0  0  0  0  0  0  0  0  0  0  0  0
   -5.7456   -2.9359   -0.7102 H   0  0  0  0  0  0  0  0  0  0  0  0
   -4.7660    1.7621   -0.3192 H   0  0  0  0  0  0  0  0  0  0  0  0
   -4.3882    4.4008   -0.4472 H   0  0  0  0  0  0  0  0  0  0  0  0
   -0.9719    2.1037    0.8126 H   0  0  0  0  0  0  0  0  0  0  0  0
   -2.2302    6.6774    1.1468 H   0  0  0  0  0  0  0  0  0  0  0  0
   -1.5778    6.6072   -0.5015 H   0  0  0  0  0  0  0  0  0  0  0  0
   -3.3269    6.6214   -0.2405 H   0  0  0  0  0  0  0  0  0  0  0  0
 24 25  1  0
 24  8  2  0
 25  6  1  0
  8  7  1  0
  6  7  2  0
  6 23  1  0
  7 20  1  0
 23 22  2  0
 20 19  1  0
 20 21  2  0
 22 21  1  0
 22 26  1  0
 19 18  1  0
 26  9  1  0
  4 12  1  1
  9 27  2  0
  9 30  1  0
 27 28  1  0
 18 10  1  0
 30 29  2  0
 10  3  1  0
 10 11  1  0
  4  3  1  0
  4 14  1  0
  4 13  1  0
 28 29  1  0
 28 31  1  0
  3  2  1  0
 11  1  1  0
  2  1  1  0
  1  5  1  0
  5 17  2  0
  5 15  1  0
 15 16  1  0
  2 32  1  0
  2 33  1  0
  3 34  1  1
  8 35  1  0
 10 36  1  1
 11 37  1  0
 11 38  1  0
 15 39  1  0
 15 40  1  0
 16 41  1  0
 16 42  1  0
 16 43  1  0
 18 44  1  0
 18 45  1  0
 24 46  1  0
 25 47  1  0
 26 48  1  0
 27 49  1  0
 30 50  1  0
 31 51  1  0
 31 52  1  0
 31 53  1  0
M  END
