
     RDKit          3D

 17 17  0  0  0  0  0  0  0  0999 V2000
    2.7951   -0.0418    0.1391 N   0  0  0  0  0  0  0  0  0  0  0  0
    1.4137   -0.0335    0.0632 C   0  0  0  0  0  0  0  0  0  0  0  0
    0.6972    1.1678    0.0685 C   0  0  0  0  0  0  0  0  0  0  0  0
    0.6848   -1.2267    0.0295 C   0  0  0  0  0  0  0  0  0  0  0  0
   -0.7013   -1.2100    0.0076 C   0  0  0  0  0  0  0  0  0  0  0  0
   -1.4221   -0.0179    0.0193 C   0  0  0  0  0  0  0  0  0  0  0  0
   -2.9246   -0.0099    0.0264 C   0  0  0  0  0  0  0  0  0  0  0  0
   -0.6888    1.1663    0.0461 C   0  0  0  0  0  0  0  0  0  0  0  0
    3.2483    0.7914   -0.2016 H   0  0  0  0  0  0  0  0  0  0  0  0
    3.2395   -0.8699   -0.2251 H   0  0  0  0  0  0  0  0  0  0  0  0
    1.2327    2.1105    0.0853 H   0  0  0  0  0  0  0  0  0  0  0  0
    1.2105   -2.1750    0.0149 H   0  0  0  0  0  0  0  0  0  0  0  0
   -1.2109    2.1169    0.0445 H   0  0  0  0  0  0  0  0  0  0  0  0
   -1.2339   -2.1541   -0.0251 H   0  0  0  0  0  0  0  0  0  0  0  0
   -3.3210   -0.0044    1.0445 H   0  0  0  0  0  0  0  0  0  0  0  0
   -3.3229    0.8717   -0.4766 H   0  0  0  0  0  0  0  0  0  0  0  0
   -3.3321   -0.8900   -0.4715 H   0  0  0  0  0  0  0  0  0  0  0  0
  1  2  1  0
  2  3  2  0
  2  4  1  0
  3  8  1  0
  4  5  2  0
  5  6  1  0
  6  7  1  0
  6  8  2  0
  1  9  1  0
  1 10  1  0
  3 11  1  0
  4 12  1  0
  8 13  1  0
  5 14  1  0
  7 15  1  0
  7 16  1  0
  7 17  1  0
M  END
