
     RDKit          3D

 57 61  0  0  0  0  0  0  0  0999 V2000
    3.6680    2.4417    1.3032 C   0  0  0  0  0  0  0  0  0  0  0  0
    0.9771    4.2791   -0.2813 C   0  0  0  0  0  0  0  0  0  0  0  0
   -0.2270    2.5512   -1.6388 C   0  0  0  0  0  0  0  0  0  0  0  0
   -1.9997    2.4217    0.1430 C   0  0  0  0  0  0  0  0  0  0  0  0
   -4.3073   -0.3487    1.3414 C   0  0  0  0  0  0  0  0  0  0  0  0
   -6.0100   -0.3195   -0.3527 C   0  0  0  0  0  0  0  0  0  0  0  0
   -7.7269   -2.1404   -0.4775 C   0  0  0  0  0  0  0  0  0  0  0  0
   -5.9865   -2.0491    1.3192 C   0  0  0  0  0  0  0  0  0  0  0  0
   -1.5793    0.4704   -1.1732 C   0  0  0  0  0  0  0  0  0  0  0  0
    4.4704   -3.0937   -0.2149 C   0  0  0  0  0  0  0  0  0  0  0  0
    3.1507   -3.1505   -0.4146 N   0  0  0  0  0  0  0  0  0  0  0  0
    2.5302   -1.9627   -0.2693 N   0  0  0  0  0  0  0  0  0  0  0  0
    3.4702   -1.1021    0.0297 C   0  0  0  0  0  0  0  0  0  0  0  0
    3.1645    0.3162    0.2296 C   0  0  0  0  0  0  0  0  0  0  0  0
    2.0855    0.8753   -0.4422 C   0  0  0  0  0  0  0  0  0  0  0  0
    1.8151    2.2221   -0.2357 C   0  0  0  0  0  0  0  0  0  0  0  0
    2.5913    3.0266    0.6291 C   0  0  0  0  0  0  0  0  0  0  0  0
    3.9430    1.1055    1.1012 C   0  0  0  0  0  0  0  0  0  0  0  0
    2.0318    4.3385    0.5829 C   0  0  0  0  0  0  0  0  0  0  0  0
    0.8449    3.0136   -0.7855 N   0  0  0  0  0  0  0  0  0  0  0  0
   -1.2879    1.7973   -0.8757 C   0  0  0  0  0  0  0  0  0  0  0  0
   -2.9784    1.7335    0.8440 C   0  0  0  0  0  0  0  0  0  0  0  0
   -3.2682    0.4040    0.5516 C   0  0  0  0  0  0  0  0  0  0  0  0
   -5.1828   -1.1478    0.5100 N   0  0  0  0  0  0  0  0  0  0  0  0
   -6.8704   -1.1680   -1.2767 C   0  0  0  0  0  0  0  0  0  0  0  0
   -6.8430   -2.9601    0.4530 C   0  0  0  0  0  0  0  0  0  0  0  0
   -2.5574   -0.2187   -0.4696 C   0  0  0  0  0  0  0  0  0  0  0  0
    4.7390   -1.7531    0.0843 C   0  0  0  0  0  0  0  0  0  0  0  0
    6.0167   -1.2194    0.2956 C   0  0  0  0  0  0  0  0  0  0  0  0
    7.0812   -0.8010    0.4669 N   0  0  0  0  0  0  0  0  0  0  0  0
    4.2770    3.0259    1.9815 H   0  0  0  0  0  0  0  0  0  0  0  0
    0.2956    5.0572   -0.5900 H   0  0  0  0  0  0  0  0  0  0  0  0
   -0.6539    3.4276   -2.1278 H   0  0  0  0  0  0  0  0  0  0  0  0
    0.1903    1.9237   -2.4286 H   0  0  0  0  0  0  0  0  0  0  0  0
   -1.7992    3.4578    0.3902 H   0  0  0  0  0  0  0  0  0  0  0  0
   -3.7954   -1.0247    2.0344 H   0  0  0  0  0  0  0  0  0  0  0  0
   -4.8685    0.3640    1.9709 H   0  0  0  0  0  0  0  0  0  0  0  0
   -6.6602    0.3476    0.2432 H   0  0  0  0  0  0  0  0  0  0  0  0
   -5.3612    0.3255   -0.9483 H   0  0  0  0  0  0  0  0  0  0  0  0
   -8.4569   -1.5791    0.1162 H   0  0  0  0  0  0  0  0  0  0  0  0
   -8.2977   -2.7918   -1.1429 H   0  0  0  0  0  0  0  0  0  0  0  0
   -5.3141   -2.6484    1.9381 H   0  0  0  0  0  0  0  0  0  0  0  0
   -6.6415   -1.4911    2.0134 H   0  0  0  0  0  0  0  0  0  0  0  0
   -1.0377   -0.0339   -1.9655 H   0  0  0  0  0  0  0  0  0  0  0  0
    4.9157   -5.0653   -0.3315 H   0  0  0  0  0  0  0  0  0  0  0  0
    6.2061   -4.0698    0.0881 H   0  0  0  0  0  0  0  0  0  0  0  0
    2.6082   -3.9698   -0.6404 H   0  0  0  0  0  0  0  0  0  0  0  0
    1.4899    0.2707   -1.1137 H   0  0  0  0  0  0  0  0  0  0  0  0
    4.7621    0.6554    1.6460 H   0  0  0  0  0  0  0  0  0  0  0  0
    2.3692    5.2133    1.1152 H   0  0  0  0  0  0  0  0  0  0  0  0
   -3.5321    2.2427    1.6241 H   0  0  0  0  0  0  0  0  0  0  0  0
   -7.4924   -0.5123   -1.8897 H   0  0  0  0  0  0  0  0  0  0  0  0
   -6.2198   -1.7230   -1.9598 H   0  0  0  0  0  0  0  0  0  0  0  0
   -7.4452   -3.6049    1.0967 H   0  0  0  0  0  0  0  0  0  0  0  0
   -6.1911   -3.6132   -0.1352 H   0  0  0  0  0  0  0  0  0  0  0  0
   -2.7789   -1.2482   -0.7215 H   0  0  0  0  0  0  0  0  0  0  0  0
    5.3099   -4.1387   -0.3661 N   0  0  0  0  0  0  0  0  0  0  0  0
 26  7  1  0
 26  8  1  0
  7 25  1  0
  8 24  1  0
 25  6  1  0
 24  5  1  0
 24  6  1  0
  5 23  1  0
 22 23  1  0
 22  4  2  0
 23 27  2  0
  4 21  1  0
 27  9  1  0
 21  9  2  0
 21  3  1  0
  2 19  2  0
  2 20  1  0
 19 17  1  0
 20  3  1  0
 20 16  1  0
 17 16  1  0
 17  1  2  0
 16 15  2  0
  1 18  1  0
 15 14  1  0
 18 14  2  0
 14 13  1  0
 13 12  2  0
 13 28  1  0
 12 11  1  0
 28 29  1  0
 28 10  2  0
 29 30  3  0
 11 10  1  0
 10 57  1  0
  1 31  1  0
  2 32  1  0
  3 33  1  0
  3 34  1  0
  4 35  1  0
  5 36  1  0
  5 37  1  0
  6 38  1  0
  6 39  1  0
  7 40  1  0
  7 41  1  0
  8 42  1  0
  8 43  1  0
  9 44  1  0
 57 45  1  0
 57 46  1  0
 11 47  1  0
 15 48  1  0
 18 49  1  0
 19 50  1  0
 22 51  1  0
 25 52  1  0
 25 53  1  0
 26 54  1  0
 26 55  1  0
 27 56  1  0
M  END
