
     RDKit          3D

 46 49  0  0  0  0  0  0  0  0999 V2000
   -2.1827   -0.8941   -0.0790 C   0  0  0  0  0  0  0  0  0  0  0  0
   -2.9867   -1.6531    0.6769 F   0  0  0  0  0  0  0  0  0  0  0  0
   -4.9744    0.4273   -0.3103 N   0  0  0  0  0  0  0  0  0  0  0  0
   -0.8354   -0.8821    0.2167 C   0  0  0  0  0  0  0  0  0  0  0  0
    1.3876   -0.0767   -0.3032 N   0  0  0  0  0  0  0  0  0  0  0  0
    0.0025   -0.1007   -0.5680 C   0  0  0  0  0  0  0  0  0  0  0  0
    2.0381    1.0828   -0.3393 N   0  0  0  0  0  0  0  0  0  0  0  0
   -0.5104    0.6610   -1.6085 C   0  0  0  0  0  0  0  0  0  0  0  0
   -1.8730    0.6320   -1.8596 C   0  0  0  0  0  0  0  0  0  0  0  0
   -2.7412   -0.1512   -1.1077 C   0  0  0  0  0  0  0  0  0  0  0  0
   -4.2214   -0.1766   -1.3793 C   0  0  0  0  0  0  0  0  0  0  0  0
   -4.8565    1.8411   -0.0100 C   0  0  0  0  0  0  0  0  0  0  0  0
   -5.5853    1.9706    1.3282 C   0  0  0  0  0  0  0  0  0  0  0  0
   -6.5834    0.8180    1.3053 C   0  0  0  0  0  0  0  0  0  0  0  0
   -5.9562   -0.1971    0.3739 C   0  0  0  0  0  0  0  0  0  0  0  0
    3.2947    0.7724   -0.1067 C   0  0  0  0  0  0  0  0  0  0  0  0
    3.4780   -0.6084    0.0820 C   0  0  0  0  0  0  0  0  0  0  0  0
    4.6912   -1.4441    0.3295 C   0  0  0  0  0  0  0  0  0  0  0  0
    4.2693   -2.8613    0.7212 C   0  0  0  0  0  0  0  0  0  0  0  0
    3.1519   -3.3888   -0.1771 C   0  0  0  0  0  0  0  0  0  0  0  0
    1.8667   -2.5744   -0.0051 C   0  0  0  0  0  0  0  0  0  0  0  0
    2.2149   -1.1284   -0.0589 C   0  0  0  0  0  0  0  0  0  0  0  0
    4.3364    1.8269   -0.0373 C   0  0  2  0  0  0  0  0  0  0  0  0
   -0.4623   -1.4538    1.0557 H   0  0  0  0  0  0  0  0  0  0  0  0
    0.1457    1.2667   -2.2173 H   0  0  0  0  0  0  0  0  0  0  0  0
   -2.2734    1.2251   -2.6723 H   0  0  0  0  0  0  0  0  0  0  0  0
   -4.5752   -1.1990   -1.5133 H   0  0  0  0  0  0  0  0  0  0  0  0
   -4.4197    0.3532   -2.3154 H   0  0  0  0  0  0  0  0  0  0  0  0
   -3.8095    2.1406    0.0546 H   0  0  0  0  0  0  0  0  0  0  0  0
   -5.3270    2.4398   -0.7970 H   0  0  0  0  0  0  0  0  0  0  0  0
   -4.8773    1.8370    2.1468 H   0  0  0  0  0  0  0  0  0  0  0  0
   -6.0525    2.9459    1.4464 H   0  0  0  0  0  0  0  0  0  0  0  0
   -6.7854    0.3832    2.2834 H   0  0  0  0  0  0  0  0  0  0  0  0
   -7.5444    1.1181    0.8775 H   0  0  0  0  0  0  0  0  0  0  0  0
    5.3094   -1.4750   -0.5727 H   0  0  0  0  0  0  0  0  0  0  0  0
    5.3145   -1.0059    1.1119 H   0  0  0  0  0  0  0  0  0  0  0  0
    5.1332   -3.5258    0.6749 H   0  0  0  0  0  0  0  0  0  0  0  0
    3.9246   -2.8651    1.7597 H   0  0  0  0  0  0  0  0  0  0  0  0
    3.4715   -3.3510   -1.2223 H   0  0  0  0  0  0  0  0  0  0  0  0
    2.9446   -4.4344    0.0540 H   0  0  0  0  0  0  0  0  0  0  0  0
    1.1330   -2.8333   -0.7718 H   0  0  0  0  0  0  0  0  0  0  0  0
    1.4120   -2.8195    0.9593 H   0  0  0  0  0  0  0  0  0  0  0  0
   -6.2931   -1.3612    0.2354 O   0  0  0  0  0  0  0  0  0  0  0  0
    3.8702    3.0264   -0.3807 F   0  0  0  0  0  0  0  0  0  0  0  0
    5.3680    1.5456   -0.8465 F   0  0  0  0  0  0  0  0  0  0  0  0
    4.8463    1.9334    1.1997 F   0  0  0  0  0  0  0  0  0  0  0  0
  1  2  1  0
  1  4  2  0
  1 10  1  0
  3 11  1  0
  3 12  1  0
  3 15  1  0
 43 15  2  0
  4  6  1  0
 23 44  1  6
  5  6  1  0
  5  7  1  0
  5 22  1  0
  6  8  2  0
 45 23  1  0
  7 16  2  0
  8  9  1  0
 46 23  1  0
  9 10  2  0
 10 11  1  0
 12 13  1  0
 13 14  1  0
 14 15  1  0
 16 17  1  0
 16 23  1  0
 17 18  1  0
 17 22  2  0
 18 19  1  0
 19 20  1  0
 20 21  1  0
 21 22  1  0
  4 24  1  0
  8 25  1  0
  9 26  1  0
 11 27  1  0
 11 28  1  0
 12 29  1  0
 12 30  1  0
 13 31  1  0
 13 32  1  0
 14 33  1  0
 14 34  1  0
 18 35  1  0
 18 36  1  0
 19 37  1  0
 19 38  1  0
 20 39  1  0
 20 40  1  0
 21 41  1  0
 21 42  1  0
M  END
