
     RDKit          3D

 32 33  0  0  0  0  0  0  0  0999 V2000
    2.4890    0.3889   -0.5460 C   0  0  0  0  0  0  0  0  0  0  0  0
    2.8364   -0.9381   -0.4133 C   0  0  0  0  0  0  0  0  0  0  0  0
    1.9134   -1.9078   -0.0763 C   0  0  0  0  0  0  0  0  0  0  0  0
    0.6044   -1.5057    0.1268 C   0  0  0  0  0  0  0  0  0  0  0  0
    0.2141   -0.1728    0.0055 C   0  0  0  0  0  0  0  0  0  0  0  0
    1.1710    0.7926   -0.3324 C   0  0  0  0  0  0  0  0  0  0  0  0
    0.8689    2.2637   -0.4255 C   0  0  0  0  0  0  0  0  0  0  0  0
    0.9949    2.9645    0.9300 C   0  0  0  0  0  0  0  0  0  0  0  0
   -1.2148    0.1932    0.3398 C   0  0  1  0  0  0  0  0  0  0  0  0
   -2.2063   -0.7555   -0.2774 C   0  0  0  0  0  0  0  0  0  0  0  0
   -1.4217    0.3004    1.7325 O   0  0  0  0  0  0  0  0  0  0  0  0
   -3.3285   -1.1397    0.3639 N   0  0  0  0  0  0  0  0  0  0  0  0
   -4.0454   -1.9319   -0.4853 C   0  0  0  0  0  0  0  0  0  0  0  0
   -3.3040   -1.9855   -1.6305 C   0  0  0  0  0  0  0  0  0  0  0  0
   -2.1605   -1.2494   -1.4891 N   0  0  0  0  0  0  0  0  0  0  0  0
    4.1127   -1.2981   -0.6246 F   0  0  0  0  0  0  0  0  0  0  0  0
    0.7143    4.4564    0.8343 C   0  0  0  0  0  0  0  0  0  0  0  0
    3.2438    1.1191   -0.8133 H   0  0  0  0  0  0  0  0  0  0  0  0
    2.2030   -2.9459    0.0179 H   0  0  0  0  0  0  0  0  0  0  0  0
   -0.1312   -2.2611    0.3763 H   0  0  0  0  0  0  0  0  0  0  0  0
    1.5666    2.7244   -1.1296 H   0  0  0  0  0  0  0  0  0  0  0  0
   -0.1272    2.4426   -0.8364 H   0  0  0  0  0  0  0  0  0  0  0  0
    0.3129    2.5003    1.6464 H   0  0  0  0  0  0  0  0  0  0  0  0
    2.0032    2.8001    1.3197 H   0  0  0  0  0  0  0  0  0  0  0  0
   -1.4379    1.1867   -0.0561 H   0  0  0  0  0  0  0  0  0  0  0  0
   -1.0396   -0.4719    2.1652 H   0  0  0  0  0  0  0  0  0  0  0  0
   -3.5884   -0.8824    1.3029 H   0  0  0  0  0  0  0  0  0  0  0  0
   -4.9854   -2.3763   -0.2068 H   0  0  0  0  0  0  0  0  0  0  0  0
   -3.5282   -2.5209   -2.5402 H   0  0  0  0  0  0  0  0  0  0  0  0
    1.4050    4.9441    0.1440 H   0  0  0  0  0  0  0  0  0  0  0  0
   -0.2989    4.6456    0.4757 H   0  0  0  0  0  0  0  0  0  0  0  0
    0.8183    4.9412    1.8052 H   0  0  0  0  0  0  0  0  0  0  0  0
  3  4  2  0
  3  2  1  0
 16  2  1  0
  4  5  1  0
  2  1  2  0
 12 13  1  0
 12 10  1  0
 13 14  2  0
 11  9  1  0
  5  9  1  0
  5  6  2  0
  1  6  1  0
 10  9  1  0
 10 15  2  0
  6  7  1  0
 14 15  1  0
  8  7  1  0
  8 17  1  0
  1 18  1  0
  3 19  1  0
  4 20  1  0
  7 21  1  0
  7 22  1  0
  8 23  1  0
  8 24  1  0
  9 25  1  6
 11 26  1  0
 12 27  1  0
 13 28  1  0
 14 29  1  0
 17 30  1  0
 17 31  1  0
 17 32  1  0
M  END
