
     RDKit          3D

 57 61  0  0  0  0  0  0  0  0999 V2000
    0.7794   -1.6000   -0.1942 C   0  0  0  0  0  0  0  0  0  0  0  0
   -0.7038   -0.2876    1.2932 C   0  0  0  0  0  0  0  0  0  0  0  0
   -1.6451   -1.2849    1.0468 N   0  0  0  0  0  0  0  0  0  0  0  0
    2.5500   -0.4711   -0.2428 C   0  0  0  0  0  0  0  0  0  0  0  0
    0.5340   -0.5275    0.6171 C   0  0  0  0  0  0  0  0  0  0  0  0
    2.0035   -1.5786   -0.7307 N   0  0  0  0  0  0  0  0  0  0  0  0
    1.7108    0.1936    0.5896 N   0  0  0  0  0  0  0  0  0  0  0  0
   -0.2060   -2.5269   -0.3881 N   0  0  0  0  0  0  0  0  0  0  0  0
   -1.4135   -2.3623    0.2232 C   0  0  0  0  0  0  0  0  0  0  0  0
   -2.2436   -3.3210   -0.0765 N   0  0  0  0  0  0  0  0  0  0  0  0
   -1.5417   -4.1472   -0.9189 C   0  0  0  0  0  0  0  0  0  0  0  0
   -0.2820   -3.6855   -1.1338 C   0  0  0  0  0  0  0  0  0  0  0  0
   -0.9532    0.6617    2.0186 O   0  0  0  0  0  0  0  0  0  0  0  0
    2.0325    1.3439    1.4138 C   0  0  0  0  0  0  0  0  0  0  0  0
    1.4920    2.5905    0.8843 C   0  0  0  0  0  0  0  0  0  0  0  0
    1.0596    3.6242    0.4482 C   0  0  0  0  0  0  0  0  0  0  0  0
    0.5303    4.8721   -0.0766 C   0  0  0  0  0  0  0  0  0  0  0  0
    3.8219   -0.0440   -0.4899 N   0  0  0  0  0  0  0  0  0  0  0  0
    4.7640   -1.0617   -0.9436 C   0  0  0  0  0  0  0  0  0  0  0  0
    6.1859   -0.5997   -0.6505 C   0  0  1  0  0  0  0  0  0  0  0  0
    6.4409    0.7415   -1.3482 C   0  0  0  0  0  0  0  0  0  0  0  0
    5.3861    1.7753   -0.9694 C   0  0  0  0  0  0  0  0  0  0  0  0
    3.9887    1.2288   -1.2023 C   0  0  0  0  0  0  0  0  0  0  0  0
    6.4045   -0.5948    0.7893 N   0  0  0  0  0  0  0  0  0  0  0  0
   -2.9708   -1.1528    1.6480 C   0  0  0  0  0  0  0  0  0  0  0  0
   -3.8604   -0.2420    0.8423 C   0  0  0  0  0  0  0  0  0  0  0  0
   -4.4549   -0.7038   -0.3311 C   0  0  0  0  0  0  0  0  0  0  0  0
   -5.2572    0.1282   -1.0904 C   0  0  0  0  0  0  0  0  0  0  0  0
   -5.4753    1.4405   -0.6708 C   0  0  0  0  0  0  0  0  0  0  0  0
   -4.8935    1.9117    0.5049 C   0  0  0  0  0  0  0  0  0  0  0  0
   -4.0887    1.0686    1.2515 C   0  0  0  0  0  0  0  0  0  0  0  0
   -6.3041    2.3047   -1.4475 C   0  0  0  0  0  0  0  0  0  0  0  0
   -6.9730    3.0026   -2.0748 N   0  0  0  0  0  0  0  0  0  0  0  0
   -1.9900   -5.0372   -1.3303 H   0  0  0  0  0  0  0  0  0  0  0  0
    0.5444   -4.0460   -1.7204 H   0  0  0  0  0  0  0  0  0  0  0  0
    1.6561    1.1631    2.4200 H   0  0  0  0  0  0  0  0  0  0  0  0
    3.1201    1.3957    1.4910 H   0  0  0  0  0  0  0  0  0  0  0  0
    0.5296    5.6457    0.6910 H   0  0  0  0  0  0  0  0  0  0  0  0
    1.1284    5.2314   -0.9140 H   0  0  0  0  0  0  0  0  0  0  0  0
   -0.4950    4.7460   -0.4250 H   0  0  0  0  0  0  0  0  0  0  0  0
    4.5616   -1.9956   -0.4210 H   0  0  0  0  0  0  0  0  0  0  0  0
    4.6480   -1.2484   -2.0190 H   0  0  0  0  0  0  0  0  0  0  0  0
    6.8573   -1.3484   -1.0815 H   0  0  0  0  0  0  0  0  0  0  0  0
    7.4422    1.1057   -1.1035 H   0  0  0  0  0  0  0  0  0  0  0  0
    6.4198    0.5886   -2.4323 H   0  0  0  0  0  0  0  0  0  0  0  0
    5.4911    2.0702    0.0787 H   0  0  0  0  0  0  0  0  0  0  0  0
    5.5130    2.6827   -1.5626 H   0  0  0  0  0  0  0  0  0  0  0  0
    3.8238    1.0688   -2.2769 H   0  0  0  0  0  0  0  0  0  0  0  0
    3.2390    1.9461   -0.8703 H   0  0  0  0  0  0  0  0  0  0  0  0
    7.3348   -0.2472    0.9878 H   0  0  0  0  0  0  0  0  0  0  0  0
    5.7670    0.0562    1.2318 H   0  0  0  0  0  0  0  0  0  0  0  0
   -3.4021   -2.1496    1.7133 H   0  0  0  0  0  0  0  0  0  0  0  0
   -2.8539   -0.7803    2.6631 H   0  0  0  0  0  0  0  0  0  0  0  0
   -4.2920   -1.7250   -0.6504 H   0  0  0  0  0  0  0  0  0  0  0  0
   -5.7167   -0.2360   -1.9990 H   0  0  0  0  0  0  0  0  0  0  0  0
   -5.0678    2.9288    0.8284 H   0  0  0  0  0  0  0  0  0  0  0  0
   -3.6328    1.4353    2.1608 H   0  0  0  0  0  0  0  0  0  0  0  0
 24 20  1  0
 21 20  1  0
 21 22  1  0
 19 20  1  0
 19 18  1  0
 17 16  1  0
 23 22  1  0
 23 18  1  0
 16 15  3  0
 18  4  1  0
 15 14  1  0
 14  7  1  0
  4  7  1  0
  4  6  2  0
  7  5  1  0
  6  1  1  0
  5  1  2  0
  5  2  1  0
  1  8  1  0
 13  2  2  0
  2  3  1  0
  8 12  1  0
  8  9  1  0
  3  9  1  0
  3 25  1  0
 12 11  2  0
  9 10  2  0
 31 30  2  0
 31 26  1  0
 25 26  1  0
 11 10  1  0
 30 29  1  0
 26 27  2  0
 29 28  2  0
 29 32  1  0
 27 28  1  0
 32 33  3  0
 11 34  1  0
 12 35  1  0
 14 36  1  0
 14 37  1  0
 17 38  1  0
 17 39  1  0
 17 40  1  0
 19 41  1  0
 19 42  1  0
 20 43  1  6
 21 44  1  0
 21 45  1  0
 22 46  1  0
 22 47  1  0
 23 48  1  0
 23 49  1  0
 24 50  1  0
 24 51  1  0
 25 52  1  0
 25 53  1  0
 27 54  1  0
 28 55  1  0
 30 56  1  0
 31 57  1  0
M  END
