
     RDKit          3D

 23 24  0  0  0  0  0  0  0  0999 V2000
    4.9822   -1.4808   -0.0898 N   0  0  0  0  0  0  0  0  0  0  0  0
    1.7518   -1.6696    0.6025 C   0  0  0  0  0  0  0  0  0  0  0  0
    1.0959   -1.1196   -0.6634 C   0  0  0  0  0  0  0  0  0  0  0  0
   -0.2221    0.9551   -0.0009 C   0  0  0  0  0  0  0  0  0  0  0  0
   -2.1659    0.1767    0.1333 C   0  0  0  0  0  0  0  0  0  0  0  0
   -3.5349   -0.1093    0.2955 C   0  0  0  0  0  0  0  0  0  0  0  0
   -3.0433   -2.2817   -0.2897 C   0  0  0  0  0  0  0  0  0  0  0  0
   -1.3585   -0.8805   -0.2483 C   0  0  0  0  0  0  0  0  0  0  0  0
    3.9615   -1.9156    0.0860 N   0  0  0  0  0  0  0  0  0  0  0  0
    2.9054   -2.4986    0.2619 N   0  0  0  0  0  0  0  0  0  0  0  0
   -0.0954   -0.3639   -0.3432 N   0  0  0  0  0  0  0  0  0  0  0  0
   -1.4282    1.3234    0.2830 N   0  0  0  0  0  0  0  0  0  0  0  0
   -3.9367   -1.3660    0.0730 N   0  0  0  0  0  0  0  0  0  0  0  0
   -1.7418   -2.1327   -0.4726 N   0  0  0  0  0  0  0  0  0  0  0  0
    1.2395    2.0938    0.0363 Br  0  0  0  0  0  0  0  0  0  0  0  0
    2.0242   -0.8588    1.2832 H   0  0  0  0  0  0  0  0  0  0  0  0
    1.0515   -2.3181    1.1256 H   0  0  0  0  0  0  0  0  0  0  0  0
    1.7826   -0.4876   -1.2258 H   0  0  0  0  0  0  0  0  0  0  0  0
    0.8004   -1.9402   -1.3151 H   0  0  0  0  0  0  0  0  0  0  0  0
   -3.4376   -3.2787   -0.4538 H   0  0  0  0  0  0  0  0  0  0  0  0
   -5.4011    0.5686    0.7326 H   0  0  0  0  0  0  0  0  0  0  0  0
   -4.1636    1.7691    0.7949 H   0  0  0  0  0  0  0  0  0  0  0  0
   -4.4267    0.8079    0.6653 N   0  0  0  0  0  0  0  0  0  0  0  0
 23  6  1  0
  6 13  1  0
  6  5  2  0
  1  9  2  0
 13  7  2  0
 12  5  1  0
 12  4  2  0
  5  8  1  0
  7 14  1  0
  9 10  2  0
  4 15  1  0
  4 11  1  0
  8 14  2  0
  8 11  1  0
 11  3  1  0
 10  2  1  0
  2  3  1  0
  2 16  1  0
  2 17  1  0
  3 18  1  0
  3 19  1  0
  7 20  1  0
 23 21  1  0
 23 22  1  0
M  CHG  2   1  -1   9   1
M  END
