
     RDKit          3D

 14 14  0  0  0  0  0  0  0  0999 V2000
   -1.1899   -1.8846    0.0742 F   0  0  0  0  0  0  0  0  0  0  0  0
   -0.3512   -0.8515    0.0167 C   0  0  0  0  0  0  0  0  0  0  0  0
    1.0000   -1.0839   -0.0472 C   0  0  0  0  0  0  0  0  0  0  0  0
    1.8626    0.0126   -0.1064 C   0  0  0  0  0  0  0  0  0  0  0  0
    3.1680   -0.2469   -0.1654 O   0  0  0  0  0  0  0  0  0  0  0  0
    1.3497    1.3139   -0.1012 C   0  0  0  0  0  0  0  0  0  0  0  0
   -0.0118    1.5156   -0.0359 C   0  0  0  0  0  0  0  0  0  0  0  0
   -0.8914    0.4318    0.0251 C   0  0  0  0  0  0  0  0  0  0  0  0
   -2.2966    0.6146    0.0949 C   0  0  0  0  0  0  0  0  0  0  0  0
   -3.4372    0.7701    0.1565 N   0  0  0  0  0  0  0  0  0  0  0  0
    1.3851   -2.0955   -0.0515 H   0  0  0  0  0  0  0  0  0  0  0  0
    3.6849    0.5674   -0.1971 H   0  0  0  0  0  0  0  0  0  0  0  0
    2.0164    2.1656   -0.1483 H   0  0  0  0  0  0  0  0  0  0  0  0
   -0.4073    2.5219   -0.0303 H   0  0  0  0  0  0  0  0  0  0  0  0
 10  9  3  0
  9  8  1  0
  8  7  1  0
  8  2  2  0
  7  6  2  0
  1  2  1  0
  2  3  1  0
  6  4  1  0
  3  4  2  0
  4  5  1  0
  3 11  1  0
  5 12  1  0
  6 13  1  0
  7 14  1  0
M  END
