
     RDKit          3D

 20 20  0  0  0  0  0  0  0  0999 V2000
   -3.9930    0.9528   -0.1925 C   0  0  0  0  0  0  0  0  0  0  0  0
    3.1399    1.5681   -0.7593 O   0  0  0  0  0  0  0  0  0  0  0  0
    3.3826    0.4425   -0.3857 C   0  0  0  0  0  0  0  0  0  0  0  0
    4.6110   -0.0685   -0.3704 O   0  0  0  0  0  0  0  0  0  0  0  0
    2.3924   -0.5253    0.0990 C   0  0  0  0  0  0  0  0  0  0  0  0
    1.1002   -0.1838    0.1526 C   0  0  0  0  0  0  0  0  0  0  0  0
   -0.1296   -1.2433    0.7595 S   0  0  0  0  0  0  0  0  0  0  0  0
   -1.6110   -0.3523    0.3709 C   0  0  0  0  0  0  0  0  0  0  0  0
   -2.5228   -0.1073    1.3916 C   0  0  0  0  0  0  0  0  0  0  0  0
   -3.7173    0.5395    1.1038 C   0  0  0  0  0  0  0  0  0  0  0  0
   -3.0773    0.7074   -1.2079 C   0  0  0  0  0  0  0  0  0  0  0  0
   -1.8917    0.0412   -0.9344 C   0  0  0  0  0  0  0  0  0  0  0  0
   -4.9200    1.4653   -0.4129 H   0  0  0  0  0  0  0  0  0  0  0  0
    5.2443    0.5914   -0.6886 H   0  0  0  0  0  0  0  0  0  0  0  0
    2.7377   -1.5034    0.4112 H   0  0  0  0  0  0  0  0  0  0  0  0
    0.7689    0.7975   -0.1709 H   0  0  0  0  0  0  0  0  0  0  0  0
   -2.2989   -0.4094    2.4064 H   0  0  0  0  0  0  0  0  0  0  0  0
   -4.4255    0.7309    1.8990 H   0  0  0  0  0  0  0  0  0  0  0  0
   -3.2918    1.0211   -2.2209 H   0  0  0  0  0  0  0  0  0  0  0  0
   -1.1937   -0.1721   -1.7342 H   0  0  0  0  0  0  0  0  0  0  0  0
  7  6  1  0
  7  8  1  0
  5  6  2  0
  5  3  1  0
  3  2  2  0
  3  4  1  0
  8  9  2  0
  8 12  1  0
  9 10  1  0
 12 11  2  0
 10  1  2  0
 11  1  1  0
  1 13  1  0
  4 14  1  0
  5 15  1  0
  6 16  1  0
  9 17  1  0
 10 18  1  0
 11 19  1  0
 12 20  1  0
M  END
