
     RDKit          3D

 21 20  0  0  0  0  0  0  0  0999 V2000
   -0.3330   -0.7680    0.2319 P   0  0  2  0  0  0  0  0  0  0  0  0
   -0.6062   -1.8559   -0.7323 O   0  0  0  0  0  0  0  0  0  0  0  0
   -1.0519    0.6672   -0.1743 N   0  0  0  0  0  0  0  0  0  0  0  0
   -2.2908    0.6636   -0.9338 C   0  0  0  0  0  0  0  0  0  0  0  0
   -0.8842    1.8343    0.6748 C   0  0  0  0  0  0  0  0  0  0  0  0
    1.2046   -0.3927    0.4779 O   0  0  0  0  0  0  0  0  0  0  0  0
    2.0173    0.0743   -0.6123 C   0  0  0  0  0  0  0  0  0  0  0  0
    3.1896    0.8389   -0.0485 C   0  0  0  0  0  0  0  0  0  0  0  0
   -0.7585   -1.2237    1.7118 O   0  0  0  0  0  0  0  0  0  0  0  0
   -3.1739    0.6531   -0.2877 H   0  0  0  0  0  0  0  0  0  0  0  0
   -2.3341    1.5628   -1.5500 H   0  0  0  0  0  0  0  0  0  0  0  0
   -2.3341   -0.1992   -1.5926 H   0  0  0  0  0  0  0  0  0  0  0  0
    0.0873    1.8319    1.1661 H   0  0  0  0  0  0  0  0  0  0  0  0
   -0.9367    2.7368    0.0648 H   0  0  0  0  0  0  0  0  0  0  0  0
   -1.6596    1.9017    1.4447 H   0  0  0  0  0  0  0  0  0  0  0  0
    2.3589   -0.7861   -1.1914 H   0  0  0  0  0  0  0  0  0  0  0  0
    1.4289    0.7135   -1.2755 H   0  0  0  0  0  0  0  0  0  0  0  0
    2.8624    1.7139    0.5136 H   0  0  0  0  0  0  0  0  0  0  0  0
    3.7993    0.2134    0.6035 H   0  0  0  0  0  0  0  0  0  0  0  0
    3.8211    1.1835   -0.8673 H   0  0  0  0  0  0  0  0  0  0  0  0
   -0.6543   -0.5691    2.4139 H   0  0  0  0  0  0  0  0  0  0  0  0
  2  1  2  0
  7  8  1  0
  7  6  1  0
  1  6  1  1
  1  3  1  0
  4  3  1  0
  3  5  1  0
  1  9  1  0
  4 10  1  0
  4 11  1  0
  4 12  1  0
  5 13  1  0
  5 14  1  0
  5 15  1  0
  7 16  1  0
  7 17  1  0
  8 18  1  0
  8 19  1  0
  8 20  1  0
  9 21  1  0
M  END
