
     RDKit          3D

 48 49  0  0  0  0  0  0  0  0999 V2000
   -8.3141    1.4194    0.8375 C   0  0  0  0  0  0  0  0  0  0  0  0
   -5.3663   -0.6477    0.1670 N   0  0  0  0  0  0  0  0  0  0  0  0
   -3.4752    0.0676   -0.8804 O   0  0  0  0  0  0  0  0  0  0  0  0
   -8.0178    2.6062    0.1788 C   0  0  0  0  0  0  0  0  0  0  0  0
    4.6489   -0.4895   -0.6422 N   0  0  0  0  0  0  0  0  0  0  0  0
    3.4640   -0.1083    1.2390 O   0  0  0  0  0  0  0  0  0  0  0  0
   -6.8144    2.7118   -0.5020 C   0  0  0  0  0  0  0  0  0  0  0  0
    6.7252   -0.8530    1.2283 N   0  0  0  0  0  0  0  0  0  0  0  0
   -5.9056    1.6611   -0.5342 C   0  0  0  0  0  0  0  0  0  0  0  0
   -6.2035    0.4709    0.1326 C   0  0  0  0  0  0  0  0  0  0  0  0
   -7.4187    0.3643    0.8160 C   0  0  0  0  0  0  0  0  0  0  0  0
   -4.0966   -0.7976   -0.2939 C   0  0  0  0  0  0  0  0  0  0  0  0
   -3.5164   -2.1706    0.0012 C   0  0  0  0  0  0  0  0  0  0  0  0
   -2.1342   -2.3444   -0.5355 C   0  0  0  0  0  0  0  0  0  0  0  0
   -1.0681   -2.5624    0.2265 C   0  0  0  0  0  0  0  0  0  0  0  0
    0.3281   -2.7419   -0.2759 C   0  0  0  0  0  0  0  0  0  0  0  0
    1.2448   -1.6071    0.1813 C   0  0  0  0  0  0  0  0  0  0  0  0
    2.6917   -1.8467   -0.2274 C   0  0  0  0  0  0  0  0  0  0  0  0
    3.6166   -0.7298    0.2017 C   0  0  0  0  0  0  0  0  0  0  0  0
    5.6041    0.5310   -0.4116 C   0  0  0  0  0  0  0  0  0  0  0  0
    5.5178    1.7286   -1.1072 C   0  0  0  0  0  0  0  0  0  0  0  0
    6.4503    2.7373   -0.9172 C   0  0  0  0  0  0  0  0  0  0  0  0
    7.4773    2.5330   -0.0031 C   0  0  0  0  0  0  0  0  0  0  0  0
    7.5754    1.3431    0.6969 C   0  0  0  0  0  0  0  0  0  0  0  0
    6.6442    0.3140    0.5069 C   0  0  0  0  0  0  0  0  0  0  0  0
   -9.2471    1.3110    1.3754 H   0  0  0  0  0  0  0  0  0  0  0  0
   -5.7517   -1.4452    0.6509 H   0  0  0  0  0  0  0  0  0  0  0  0
   -8.7148    3.4331    0.1963 H   0  0  0  0  0  0  0  0  0  0  0  0
    4.6730   -0.9768   -1.5248 H   0  0  0  0  0  0  0  0  0  0  0  0
   -6.5673    3.6278   -1.0236 H   0  0  0  0  0  0  0  0  0  0  0  0
    6.2768   -1.6558    0.8166 H   0  0  0  0  0  0  0  0  0  0  0  0
    7.6384   -1.0753    1.5907 H   0  0  0  0  0  0  0  0  0  0  0  0
   -4.9813    1.7777   -1.0751 H   0  0  0  0  0  0  0  0  0  0  0  0
   -7.6626   -0.5547    1.3367 H   0  0  0  0  0  0  0  0  0  0  0  0
   -3.5301   -2.3309    1.0839 H   0  0  0  0  0  0  0  0  0  0  0  0
   -4.1895   -2.9248   -0.4219 H   0  0  0  0  0  0  0  0  0  0  0  0
   -2.0190   -2.3061   -1.6151 H   0  0  0  0  0  0  0  0  0  0  0  0
   -1.1921   -2.5957    1.3074 H   0  0  0  0  0  0  0  0  0  0  0  0
    0.7270   -3.6923    0.0958 H   0  0  0  0  0  0  0  0  0  0  0  0
    0.3322   -2.8052   -1.3677 H   0  0  0  0  0  0  0  0  0  0  0  0
    0.8875   -0.6664   -0.2457 H   0  0  0  0  0  0  0  0  0  0  0  0
    1.1814   -1.5000    1.2664 H   0  0  0  0  0  0  0  0  0  0  0  0
    3.0575   -2.7689    0.2375 H   0  0  0  0  0  0  0  0  0  0  0  0
    2.7604   -2.0075   -1.3065 H   0  0  0  0  0  0  0  0  0  0  0  0
    4.7039    1.8611   -1.8097 H   0  0  0  0  0  0  0  0  0  0  0  0
    6.3744    3.6652   -1.4676 H   0  0  0  0  0  0  0  0  0  0  0  0
    8.2150    3.3072    0.1662 H   0  0  0  0  0  0  0  0  0  0  0  0
    8.3851    1.1962    1.4020 H   0  0  0  0  0  0  0  0  0  0  0  0
  4  1  2  0
  1 11  1  0
  1 26  1  0
 10  2  1  0
  2 12  1  0
  2 27  1  0
 12  3  2  0
  7  4  1  0
  4 28  1  0
  5 20  1  0
  5 19  1  0
  5 29  1  0
 19  6  2  0
  7  9  2  0
  7 30  1  0
 25  8  1  0
  8 31  1  0
  8 32  1  0
  9 10  1  0
  9 33  1  0
 10 11  2  0
 11 34  1  0
 12 13  1  0
 13 14  1  0
 13 35  1  0
 13 36  1  0
 14 15  2  0
 14 37  1  0
 15 16  1  0
 15 38  1  0
 17 16  1  0
 16 39  1  0
 16 40  1  0
 17 18  1  0
 17 41  1  0
 17 42  1  0
 18 19  1  0
 18 43  1  0
 18 44  1  0
 21 20  2  0
 20 25  1  0
 21 22  1  0
 21 45  1  0
 22 23  2  0
 22 46  1  0
 23 24  1  0
 23 47  1  0
 25 24  2  0
 24 48  1  0
M  END
