
     RDKit          3D

 41 42  0  0  0  0  0  0  0  0999 V2000
    3.5801    1.3525    1.3379 N   0  0  0  0  0  0  0  0  0  0  0  0
    3.8909    0.1692    0.5653 C   0  0  1  0  0  0  0  0  0  0  0  0
    3.2457    0.1090   -0.8408 C   0  0  0  0  0  0  0  0  0  0  0  0
    1.7474    0.1275   -0.7626 C   0  0  0  0  0  0  0  0  0  0  0  0
    1.0241    1.3167   -0.8590 C   0  0  0  0  0  0  0  0  0  0  0  0
   -0.3527    1.3385   -0.7207 C   0  0  0  0  0  0  0  0  0  0  0  0
   -1.0528    0.1566   -0.4783 C   0  0  0  0  0  0  0  0  0  0  0  0
   -0.3497   -1.0423   -0.3870 C   0  0  0  0  0  0  0  0  0  0  0  0
    1.0329   -1.0410   -0.5266 C   0  0  0  0  0  0  0  0  0  0  0  0
   -2.3924    0.2693   -0.3538 O   0  0  0  0  0  0  0  0  0  0  0  0
   -3.1467   -0.8984   -0.0613 C   0  0  0  0  0  0  0  0  0  0  0  0
   -4.5777   -0.4843    0.1034 C   0  0  0  0  0  0  0  0  0  0  0  0
   -5.5254   -0.7920   -0.8660 C   0  0  0  0  0  0  0  0  0  0  0  0
   -6.8491   -0.3981   -0.7100 C   0  0  0  0  0  0  0  0  0  0  0  0
   -7.2325    0.3150    0.4168 C   0  0  0  0  0  0  0  0  0  0  0  0
   -6.2898    0.6295    1.3895 C   0  0  0  0  0  0  0  0  0  0  0  0
   -4.9710    0.2310    1.2329 C   0  0  0  0  0  0  0  0  0  0  0  0
    5.4011    0.0820    0.3940 C   0  0  0  0  0  0  0  0  0  0  0  0
    6.0752    1.0759    0.1548 O   0  0  0  0  0  0  0  0  0  0  0  0
    5.9237   -1.1469    0.4692 N   0  0  0  0  0  0  0  0  0  0  0  0
    7.3253   -1.4123    0.2433 C   0  0  0  0  0  0  0  0  0  0  0  0
    3.9350    2.1727    0.8612 H   0  0  0  0  0  0  0  0  0  0  0  0
    2.5757    1.4663    1.3968 H   0  0  0  0  0  0  0  0  0  0  0  0
    3.5382   -0.7015    1.1270 H   0  0  0  0  0  0  0  0  0  0  0  0
    3.6080    0.9564   -1.4292 H   0  0  0  0  0  0  0  0  0  0  0  0
    3.5816   -0.7988   -1.3488 H   0  0  0  0  0  0  0  0  0  0  0  0
    1.5444    2.2468   -1.0559 H   0  0  0  0  0  0  0  0  0  0  0  0
   -0.8946    2.2730   -0.8004 H   0  0  0  0  0  0  0  0  0  0  0  0
   -0.8535   -1.9829   -0.2107 H   0  0  0  0  0  0  0  0  0  0  0  0
    1.5611   -1.9848   -0.4495 H   0  0  0  0  0  0  0  0  0  0  0  0
   -3.0474   -1.6338   -0.8666 H   0  0  0  0  0  0  0  0  0  0  0  0
   -2.7802   -1.3638    0.8605 H   0  0  0  0  0  0  0  0  0  0  0  0
   -5.2294   -1.3453   -1.7494 H   0  0  0  0  0  0  0  0  0  0  0  0
   -7.5790   -0.6497   -1.4684 H   0  0  0  0  0  0  0  0  0  0  0  0
   -8.2626    0.6225    0.5409 H   0  0  0  0  0  0  0  0  0  0  0  0
   -6.5851    1.1820    2.2721 H   0  0  0  0  0  0  0  0  0  0  0  0
   -4.2422    0.4715    1.9980 H   0  0  0  0  0  0  0  0  0  0  0  0
    5.3227   -1.9233    0.6879 H   0  0  0  0  0  0  0  0  0  0  0  0
    7.6321   -1.1303   -0.7644 H   0  0  0  0  0  0  0  0  0  0  0  0
    7.9556   -0.8793    0.9555 H   0  0  0  0  0  0  0  0  0  0  0  0
    7.4966   -2.4775    0.3667 H   0  0  0  0  0  0  0  0  0  0  0  0
  1  2  1  0
  2  3  1  0
  2 18  1  0
  3  4  1  0
  4  5  2  0
  4  9  1  0
  5  6  1  0
  6  7  2  0
  7  8  1  0
  7 10  1  0
  8  9  2  0
 10 11  1  0
 11 12  1  0
 12 13  2  0
 12 17  1  0
 13 14  1  0
 14 15  2  0
 15 16  1  0
 16 17  2  0
 18 19  2  0
 18 20  1  0
 20 21  1  0
  1 22  1  0
  1 23  1  0
  2 24  1  1
  3 25  1  0
  3 26  1  0
  5 27  1  0
  6 28  1  0
  8 29  1  0
  9 30  1  0
 11 31  1  0
 11 32  1  0
 13 33  1  0
 14 34  1  0
 15 35  1  0
 16 36  1  0
 17 37  1  0
 20 38  1  0
 21 39  1  0
 21 40  1  0
 21 41  1  0
M  END
