
     RDKit          3D

 57 61  0  0  0  0  0  0  0  0999 V2000
   -6.7750    0.8170    1.9243 C   0  0  0  0  0  0  0  0  0  0  0  0
   -4.8153    0.6884    0.5173 N   0  0  0  0  0  0  0  0  0  0  0  0
   -6.1465    1.2417    2.8579 O   0  0  0  0  0  0  0  0  0  0  0  0
    5.2855   -2.9139   -0.0223 N   0  0  0  0  0  0  0  0  0  0  0  0
    6.5120   -2.9219   -0.5982 C   0  0  0  0  0  0  0  0  0  0  0  0
    7.1390   -1.8075   -0.8960 N   0  0  0  0  0  0  0  0  0  0  0  0
    6.4550   -0.6890   -0.6499 C   0  0  0  0  0  0  0  0  0  0  0  0
    5.1610   -0.5556   -0.1599 C   0  0  0  0  0  0  0  0  0  0  0  0
    4.5473   -1.7745    0.3012 C   0  0  0  0  0  0  0  0  0  0  0  0
    3.5188   -1.9172    0.9409 O   0  0  0  0  0  0  0  0  0  0  0  0
   -6.2470    0.8071    0.4911 C   0  0  1  0  0  0  0  0  0  0  0  0
   -6.9225   -0.2067   -0.4370 C   0  0  0  0  0  0  0  0  0  0  0  0
   -7.0217   -1.0665   -2.8030 C   0  0  0  0  0  0  0  0  0  0  0  0
   -6.3609   -0.1132   -1.8458 C   0  0  0  0  0  0  0  0  0  0  0  0
    7.0852   -4.0975   -0.8378 N   0  0  0  0  0  0  0  0  0  0  0  0
   -4.7365   -1.2967    1.6588 O   0  0  0  0  0  0  0  0  0  0  0  0
    4.5462    3.6355    0.0824 C   0  0  0  0  0  0  0  0  0  0  0  0
   -0.3798   -0.3322    1.1599 C   0  0  0  0  0  0  0  0  0  0  0  0
    3.4506    2.8198    0.3538 C   0  0  0  0  0  0  0  0  0  0  0  0
   -1.6508   -0.8150    1.4149 C   0  0  0  0  0  0  0  0  0  0  0  0
    5.7386    3.0743   -0.3241 C   0  0  0  0  0  0  0  0  0  0  0  0
   -1.3174    1.6373    0.0850 C   0  0  0  0  0  0  0  0  0  0  0  0
    2.2470    0.6216    0.4390 C   0  0  0  0  0  0  0  0  0  0  0  0
   -3.9157    1.7068    0.0134 C   0  0  0  0  0  0  0  0  0  0  0  0
    1.0546    1.4178    0.2687 N   0  0  0  0  0  0  0  0  0  0  0  0
    7.2326    0.8338   -0.9140 S   0  0  0  0  0  0  0  0  0  0  0  0
   -4.1797   -0.3487    1.1257 C   0  0  0  0  0  0  0  0  0  0  0  0
   -0.1908    0.9008    0.5003 C   0  0  0  0  0  0  0  0  0  0  0  0
   -2.5705    1.1357    0.3428 C   0  0  0  0  0  0  0  0  0  0  0  0
    3.5046    1.4349    0.2574 C   0  0  0  0  0  0  0  0  0  0  0  0
   -2.7457   -0.0758    1.0009 C   0  0  0  0  0  0  0  0  0  0  0  0
    5.8133    1.6908   -0.3853 C   0  0  0  0  0  0  0  0  0  0  0  0
    4.7444    0.8339   -0.0517 C   0  0  0  0  0  0  0  0  0  0  0  0
   -7.9172   -1.8240   -2.5245 O   0  0  0  0  0  0  0  0  0  0  0  0
   -6.4951   -0.9820   -4.0207 O   0  0  0  0  0  0  0  0  0  0  0  0
   -8.0183    0.3745    2.0136 O   0  0  0  0  0  0  0  0  0  0  0  0
    4.8701   -3.7927    0.2592 H   0  0  0  0  0  0  0  0  0  0  0  0
   -6.4720    1.8103    0.1087 H   0  0  0  0  0  0  0  0  0  0  0  0
   -6.7965   -1.2165   -0.0465 H   0  0  0  0  0  0  0  0  0  0  0  0
   -7.9921    0.0003   -0.4624 H   0  0  0  0  0  0  0  0  0  0  0  0
   -6.4775    0.9002   -2.2438 H   0  0  0  0  0  0  0  0  0  0  0  0
   -5.2868   -0.3180   -1.8614 H   0  0  0  0  0  0  0  0  0  0  0  0
    6.6195   -4.9713   -0.6649 H   0  0  0  0  0  0  0  0  0  0  0  0
    7.9844   -4.1222   -1.2870 H   0  0  0  0  0  0  0  0  0  0  0  0
    4.4498    4.7097    0.1639 H   0  0  0  0  0  0  0  0  0  0  0  0
    0.4723   -0.9243    1.4642 H   0  0  0  0  0  0  0  0  0  0  0  0
    2.5193    3.2922    0.6356 H   0  0  0  0  0  0  0  0  0  0  0  0
   -1.7777   -1.7637    1.9216 H   0  0  0  0  0  0  0  0  0  0  0  0
    6.5896    3.6891   -0.5864 H   0  0  0  0  0  0  0  0  0  0  0  0
   -1.1845    2.5832   -0.4278 H   0  0  0  0  0  0  0  0  0  0  0  0
    2.2420    0.1896    1.4400 H   0  0  0  0  0  0  0  0  0  0  0  0
    2.2552   -0.2199   -0.2591 H   0  0  0  0  0  0  0  0  0  0  0  0
   -4.0453    1.8601   -1.0617 H   0  0  0  0  0  0  0  0  0  0  0  0
   -4.0892    2.6680    0.5063 H   0  0  0  0  0  0  0  0  0  0  0  0
    1.0922    2.0888   -0.4837 H   0  0  0  0  0  0  0  0  0  0  0  0
   -6.9342   -1.6089   -4.6143 H   0  0  0  0  0  0  0  0  0  0  0  0
   -8.3286    0.4451    2.9293 H   0  0  0  0  0  0  0  0  0  0  0  0
 11  1  1  0
  3  1  2  0
  1 36  1  0
 11  2  1  0
 24  2  1  0
  2 27  1  0
  5  4  1  0
  4  9  1  0
  4 37  1  0
 15  5  1  0
  5  6  2  0
  6  7  1  0
  7  8  2  0
  7 26  1  0
  9  8  1  0
  8 33  1  0
 10  9  2  0
 12 11  1  0
 11 38  1  6
 14 12  1  0
 12 39  1  0
 12 40  1  0
 14 13  1  0
 13 34  2  0
 13 35  1  0
 14 41  1  0
 14 42  1  0
 15 43  1  0
 15 44  1  0
 27 16  2  0
 19 17  2  0
 21 17  1  0
 17 45  1  0
 28 18  2  0
 20 18  1  0
 18 46  1  0
 30 19  1  0
 19 47  1  0
 31 20  2  0
 20 48  1  0
 32 21  2  0
 21 49  1  0
 29 22  2  0
 22 28  1  0
 22 50  1  0
 23 30  1  0
 23 25  1  0
 23 51  1  0
 23 52  1  0
 24 29  1  0
 24 53  1  0
 24 54  1  0
 28 25  1  0
 25 55  1  0
 26 32  1  0
 27 31  1  0
 29 31  1  0
 33 30  2  0
 33 32  1  0
 35 56  1  0
 36 57  1  0
M  END
