
     RDKit          3D

 29 30  0  0  0  0  0  0  0  0999 V2000
   -1.2521    1.0941    0.2867 C   0  0  0  0  0  0  0  0  0  0  0  0
   -2.4402    1.7411    0.6109 C   0  0  0  0  0  0  0  0  0  0  0  0
   -3.6365    1.0425    0.6316 C   0  0  0  0  0  0  0  0  0  0  0  0
   -3.6358   -0.3139    0.3281 C   0  0  0  0  0  0  0  0  0  0  0  0
   -2.4507   -0.9563    0.0063 C   0  0  0  0  0  0  0  0  0  0  0  0
   -1.2390   -0.2609   -0.0284 C   0  0  0  0  0  0  0  0  0  0  0  0
    0.0293   -1.0359   -0.3995 C   0  0  1  0  0  0  0  0  0  0  0  0
    1.2929   -0.2067   -0.1798 C   0  0  0  0  0  0  0  0  0  0  0  0
    1.6655    0.7875   -1.0855 C   0  0  0  0  0  0  0  0  0  0  0  0
    2.8089    1.5474   -0.8869 C   0  0  0  0  0  0  0  0  0  0  0  0
    3.6081    1.3296    0.2274 C   0  0  0  0  0  0  0  0  0  0  0  0
    0.0780   -2.2329    0.3538 O   0  0  0  0  0  0  0  0  0  0  0  0
   -0.0573   -1.4872   -1.8600 C   0  0  0  0  0  0  0  0  0  0  0  0
    2.1028   -0.4152    0.9326 C   0  0  0  0  0  0  0  0  0  0  0  0
    3.2479    0.3461    1.1359 C   0  0  0  0  0  0  0  0  0  0  0  0
   -0.3355    1.6676    0.2913 H   0  0  0  0  0  0  0  0  0  0  0  0
   -2.4218    2.7964    0.8510 H   0  0  0  0  0  0  0  0  0  0  0  0
   -4.5606    1.5456    0.8848 H   0  0  0  0  0  0  0  0  0  0  0  0
   -4.5613   -0.8751    0.3434 H   0  0  0  0  0  0  0  0  0  0  0  0
   -2.4750   -2.0153   -0.2186 H   0  0  0  0  0  0  0  0  0  0  0  0
    1.0580    0.9851   -1.9598 H   0  0  0  0  0  0  0  0  0  0  0  0
    3.0757    2.3090   -1.6085 H   0  0  0  0  0  0  0  0  0  0  0  0
    4.5026    1.9187    0.3825 H   0  0  0  0  0  0  0  0  0  0  0  0
   -0.1094   -2.0346    1.2775 H   0  0  0  0  0  0  0  0  0  0  0  0
   -0.1794   -0.6429   -2.5357 H   0  0  0  0  0  0  0  0  0  0  0  0
    0.8456   -2.0265   -2.1505 H   0  0  0  0  0  0  0  0  0  0  0  0
   -0.9126   -2.1480   -2.0028 H   0  0  0  0  0  0  0  0  0  0  0  0
    1.8627   -1.1799    1.6590 H   0  0  0  0  0  0  0  0  0  0  0  0
    3.8627    0.1619    2.0078 H   0  0  0  0  0  0  0  0  0  0  0  0
  1  2  2  0
  1  6  1  0
  7 12  1  1
  2  3  1  0
 13  7  1  0
  7  6  1  0
  7  8  1  0
  6  5  2  0
  3  4  2  0
  5  4  1  0
  8  9  2  0
  8 14  1  0
  9 10  1  0
 14 15  2  0
 10 11  2  0
 15 11  1  0
  1 16  1  0
  2 17  1  0
  3 18  1  0
  4 19  1  0
  5 20  1  0
  9 21  1  0
 10 22  1  0
 11 23  1  0
 12 24  1  0
 13 25  1  0
 13 26  1  0
 13 27  1  0
 14 28  1  0
 15 29  1  0
M  END
