
     RDKit          3D

 22 22  0  0  0  0  0  0  0  0999 V2000
   -0.8152   -0.7201   -1.3775 C   0  0  1  0  0  0  0  0  0  0  0  0
    0.7130   -0.7201   -1.3775 C   0  0  2  0  0  0  0  0  0  0  0  0
    1.2657   -0.7201   -0.0133 C   0  0  0  0  0  0  0  0  0  0  0  0
    0.7066    0.3770    0.8139 C   0  0  1  0  0  0  0  0  0  0  0  0
   -0.8279    0.3772    0.8099 C   0  0  1  0  0  0  0  0  0  0  0  0
   -1.3156    1.5993    1.5320 C   0  0  0  0  0  0  0  0  0  0  0  0
   -1.2574   -1.9147   -0.8871 O   0  0  0  0  0  0  0  0  0  0  0  0
    1.1792    0.4594   -2.0694 O   0  0  0  0  0  0  0  0  0  0  0  0
    1.1664    0.2197    2.1641 O   0  0  0  0  0  0  0  0  0  0  0  0
   -1.3748    0.3788   -0.5462 O   0  0  0  0  0  0  0  0  0  0  0  0
   -1.1650   -0.6012   -2.3959 H   0  0  0  0  0  0  0  0  0  0  0  0
    1.0641   -1.6026   -1.8985 H   0  0  0  0  0  0  0  0  0  0  0  0
    2.3411   -0.6025   -0.0708 H   0  0  0  0  0  0  0  0  0  0  0  0
    1.0347   -1.6675    0.4585 H   0  0  0  0  0  0  0  0  0  0  0  0
    1.0587    1.3246    0.4243 H   0  0  0  0  0  0  0  0  0  0  0  0
   -1.1793   -0.5070    1.3279 H   0  0  0  0  0  0  0  0  0  0  0  0
   -1.0399    1.5351    2.5777 H   0  0  0  0  0  0  0  0  0  0  0  0
   -2.3936    1.6634    1.4461 H   0  0  0  0  0  0  0  0  0  0  0  0
   -0.8654    2.4817    1.0934 H   0  0  0  0  0  0  0  0  0  0  0  0
   -1.9304   -2.2568   -1.4520 H   0  0  0  0  0  0  0  0  0  0  0  0
    1.6613    0.2030   -2.8381 H   0  0  0  0  0  0  0  0  0  0  0  0
    1.9736    0.6933    2.2786 H   0  0  0  0  0  0  0  0  0  0  0  0
  1  2  1  0
  1  7  1  0
  1 10  1  0
  1 11  1  6
  2  3  1  0
  2  8  1  0
  2 12  1  6
  3  4  1  0
  3 13  1  0
  3 14  1  0
  4  5  1  0
  4  9  1  0
  4 15  1  6
  5  6  1  0
  5 10  1  0
  5 16  1  1
  6 17  1  0
  6 18  1  0
  6 19  1  0
  7 20  1  0
  8 21  1  0
  9 22  1  0
M  END
