
     RDKit          3D

 37 38  0  0  0  0  0  0  0  0999 V2000
    3.7777    1.6697   -0.5139 C   0  0  0  0  0  0  0  0  0  0  0  0
    3.9593   -0.7299   -1.2315 C   0  0  0  0  0  0  0  0  0  0  0  0
    5.5238   -2.2469   -0.2109 C   0  0  0  0  0  0  0  0  0  0  0  0
   -2.1270    1.5721    0.6440 C   0  0  0  0  0  0  0  0  0  0  0  0
   -3.0838    0.5829    0.5160 C   0  0  0  0  0  0  0  0  0  0  0  0
   -4.7076   -1.4939   -1.3615 N   0  0  0  0  0  0  0  0  0  0  0  0
   -4.8689   -1.8442    1.0893 O   0  0  0  0  0  0  0  0  0  0  0  0
   -3.2111   -3.2373   -0.1587 O   0  0  0  0  0  0  0  0  0  0  0  0
   -2.6865   -0.6964    0.1438 C   0  0  0  0  0  0  0  0  0  0  0  0
   -1.3544   -0.9882   -0.0986 C   0  0  0  0  0  0  0  0  0  0  0  0
   -0.4059    0.0157    0.0369 C   0  0  0  0  0  0  0  0  0  0  0  0
   -0.7788    1.2994    0.4137 C   0  0  0  0  0  0  0  0  0  0  0  0
    0.2312    2.4015    0.6160 C   0  0  0  0  0  0  0  0  0  0  0  0
    1.4583    2.2151   -0.1105 N   0  0  0  0  0  0  0  0  0  0  0  0
    2.6057    1.7859    0.4460 C   0  0  0  0  0  0  0  0  0  0  0  0
    2.7169    1.5081    1.6289 O   0  0  0  0  0  0  0  0  0  0  0  0
    4.4079    0.3085   -0.4193 C   0  0  0  0  0  0  0  0  0  0  0  0
    4.5123   -1.9996   -1.1296 C   0  0  0  0  0  0  0  0  0  0  0  0
    5.9777   -1.2164    0.6025 C   0  0  0  0  0  0  0  0  0  0  0  0
    5.4202    0.0510    0.5005 C   0  0  0  0  0  0  0  0  0  0  0  0
    3.4705    1.8771   -1.5404 H   0  0  0  0  0  0  0  0  0  0  0  0
    4.5007    2.4421   -0.2395 H   0  0  0  0  0  0  0  0  0  0  0  0
    3.1754   -0.5458   -1.9574 H   0  0  0  0  0  0  0  0  0  0  0  0
    5.9596   -3.2345   -0.1333 H   0  0  0  0  0  0  0  0  0  0  0  0
   -2.4338    2.5710    0.9288 H   0  0  0  0  0  0  0  0  0  0  0  0
   -4.1250    0.8131    0.6986 H   0  0  0  0  0  0  0  0  0  0  0  0
   -4.1717   -1.6635   -2.2069 H   0  0  0  0  0  0  0  0  0  0  0  0
   -5.6176   -1.9411   -1.4293 H   0  0  0  0  0  0  0  0  0  0  0  0
   -1.0453   -1.9821   -0.3902 H   0  0  0  0  0  0  0  0  0  0  0  0
    0.6312   -0.2190   -0.1619 H   0  0  0  0  0  0  0  0  0  0  0  0
   -0.2105    3.3555    0.3233 H   0  0  0  0  0  0  0  0  0  0  0  0
    0.4651    2.4808    1.6786 H   0  0  0  0  0  0  0  0  0  0  0  0
    1.4439    2.4104   -1.0983 H   0  0  0  0  0  0  0  0  0  0  0  0
    4.1551   -2.7943   -1.7720 H   0  0  0  0  0  0  0  0  0  0  0  0
    6.7697   -1.3976    1.3179 H   0  0  0  0  0  0  0  0  0  0  0  0
    5.7833    0.8492    1.1357 H   0  0  0  0  0  0  0  0  0  0  0  0
   -3.9067   -1.9673    0.0036 S   0  0  1  0  0  0  0  0  0  0  0  0
 16 15  2  0
 19 20  2  0
 19  3  1  0
 20 17  1  0
 15  1  1  0
 15 14  1  0
  3 18  2  0
 17  1  1  0
 17  2  2  0
 13 14  1  0
 13 12  1  0
 18  2  1  0
 12 11  1  0
 12  4  2  0
 11 10  2  0
  4  5  1  0
 10  9  1  0
  5  9  2  0
  9 37  1  0
 37  6  1  6
  8 37  2  0
 37  7  2  0
  1 21  1  0
  1 22  1  0
  2 23  1  0
  3 24  1  0
  4 25  1  0
  5 26  1  0
  6 27  1  0
  6 28  1  0
 10 29  1  0
 11 30  1  0
 13 31  1  0
 13 32  1  0
 14 33  1  0
 18 34  1  0
 19 35  1  0
 20 36  1  0
M  END
