
     RDKit          3D

 24 24  0  0  0  0  0  0  0  0999 V2000
    1.9567   -1.2187   -0.0172 C   0  0  0  0  0  0  0  0  0  0  0  0
    3.1502   -0.2837    0.2523 C   0  0  0  0  0  0  0  0  0  0  0  0
    2.5927    1.1196   -0.0462 C   0  0  0  0  0  0  0  0  0  0  0  0
    1.1530    1.0466    0.1633 N   0  0  0  0  0  0  0  0  0  0  0  0
    0.7845   -0.2689   -0.3563 C   0  0  2  0  0  0  0  0  0  0  0  0
   -0.5632   -0.7463    0.1544 C   0  0  0  0  0  0  0  0  0  0  0  0
   -1.6999    0.1779   -0.2375 C   0  0  0  0  0  0  0  0  0  0  0  0
   -2.9154   -0.3672    0.2174 O   0  0  0  0  0  0  0  0  0  0  0  0
   -4.0213    0.4348   -0.1031 C   0  0  0  0  0  0  0  0  0  0  0  0
    2.1451   -1.9176   -0.8332 H   0  0  0  0  0  0  0  0  0  0  0  0
    1.7213   -1.8181    0.8654 H   0  0  0  0  0  0  0  0  0  0  0  0
    3.4628   -0.3505    1.2957 H   0  0  0  0  0  0  0  0  0  0  0  0
    4.0220   -0.5212   -0.3586 H   0  0  0  0  0  0  0  0  0  0  0  0
    3.0357    1.9021    0.5705 H   0  0  0  0  0  0  0  0  0  0  0  0
    2.7819    1.3833   -1.0909 H   0  0  0  0  0  0  0  0  0  0  0  0
    0.9764    1.0547    1.1639 H   0  0  0  0  0  0  0  0  0  0  0  0
    0.7267   -0.1765   -1.4482 H   0  0  0  0  0  0  0  0  0  0  0  0
   -0.7543   -1.7451   -0.2485 H   0  0  0  0  0  0  0  0  0  0  0  0
   -0.5219   -0.8494    1.2447 H   0  0  0  0  0  0  0  0  0  0  0  0
   -1.5421    1.1789    0.1868 H   0  0  0  0  0  0  0  0  0  0  0  0
   -1.7167    0.3005   -1.3312 H   0  0  0  0  0  0  0  0  0  0  0  0
   -3.9466    1.4367    0.3377 H   0  0  0  0  0  0  0  0  0  0  0  0
   -4.1445    0.5549   -1.1866 H   0  0  0  0  0  0  0  0  0  0  0  0
   -4.9155   -0.0475    0.2911 H   0  0  0  0  0  0  0  0  0  0  0  0
  1  5  1  0
  2  3  1  0
  3  4  1  0
  4  5  1  0
  5  6  1  0
  6  7  1  0
  7  8  1  0
  8  9  1  0
  1  2  1  0
  1 10  1  0
  1 11  1  0
  2 12  1  0
  2 13  1  0
  3 14  1  0
  3 15  1  0
  4 16  1  0
  5 17  1  6
  6 18  1  0
  6 19  1  0
  7 20  1  0
  7 21  1  0
  9 22  1  0
  9 23  1  0
  9 24  1  0
M  END
