
     RDKit          3D

 17 17  0  0  0  0  0  0  0  0999 V2000
   -1.2738   -0.0807   -0.6641 N   0  0  0  0  0  0  0  0  0  0  0  0
   -0.7690    0.0427    0.5685 C   0  0  0  0  0  0  0  0  0  0  0  0
    0.7171    0.3705    0.6908 C   0  0  1  0  0  0  0  0  0  0  0  0
    1.2191   -0.1107    1.9057 O   0  0  0  0  0  0  0  0  0  0  0  0
    1.5174   -0.1785   -0.4750 C   0  0  0  0  0  0  0  0  0  0  0  0
    0.8892    0.3251   -1.7647 C   0  0  0  0  0  0  0  0  0  0  0  0
   -0.5272   -0.2015   -1.9063 C   0  0  0  0  0  0  0  0  0  0  0  0
   -1.4542   -0.0464    1.5826 O   0  0  0  0  0  0  0  0  0  0  0  0
   -2.2630   -0.2787   -0.7145 H   0  0  0  0  0  0  0  0  0  0  0  0
    0.7755    1.4718    0.6477 H   0  0  0  0  0  0  0  0  0  0  0  0
    0.5265    0.0016    2.5687 H   0  0  0  0  0  0  0  0  0  0  0  0
    2.5568    0.1445   -0.3972 H   0  0  0  0  0  0  0  0  0  0  0  0
    1.5113   -1.2728   -0.4509 H   0  0  0  0  0  0  0  0  0  0  0  0
    0.8861    1.4188   -1.7697 H   0  0  0  0  0  0  0  0  0  0  0  0
    1.4673    0.0075   -2.6326 H   0  0  0  0  0  0  0  0  0  0  0  0
   -1.0616    0.3440   -2.6844 H   0  0  0  0  0  0  0  0  0  0  0  0
   -0.5020   -1.2527   -2.2086 H   0  0  0  0  0  0  0  0  0  0  0  0
  1  2  1  0
  1  7  1  0
  1  9  1  0
  2  3  1  0
  2  8  2  0
  3  4  1  0
  3  5  1  0
  3 10  1  1
  4 11  1  0
  5  6  1  0
  5 12  1  0
  5 13  1  0
  6  7  1  0
  6 14  1  0
  6 15  1  0
  7 16  1  0
  7 17  1  0
M  END
