
     RDKit          3D

 45 47  0  0  0  0  0  0  0  0999 V2000
    2.2201   -2.5821    1.5402 O   0  0  0  0  0  0  0  0  0  0  0  0
    1.7529   -1.2177    1.3560 S   0  0  1  0  0  0  0  0  0  0  0  0
    1.2637   -0.4745    2.5070 O   0  0  0  0  0  0  0  0  0  0  0  0
    3.0148   -0.3765    0.7429 N   0  0  0  0  0  0  0  0  0  0  0  0
    2.9110    1.0437    0.4207 C   0  0  1  0  0  0  0  0  0  0  0  0
    4.3187    1.6911    0.3650 C   0  0  0  0  0  0  0  0  0  0  0  0
    4.3768    2.4620   -0.9613 C   0  0  0  0  0  0  0  0  0  0  0  0
    2.9126    2.6895   -1.3315 C   0  0  0  0  0  0  0  0  0  0  0  0
    2.2543    1.3764   -0.9281 C   0  0  0  0  0  0  0  0  0  0  0  0
    0.4475   -1.2086    0.1403 C   0  0  0  0  0  0  0  0  0  0  0  0
    0.5890   -1.8637   -1.0889 C   0  0  0  0  0  0  0  0  0  0  0  0
    1.8042   -2.6384   -1.5056 C   0  0  0  0  0  0  0  0  0  0  0  0
   -0.4822   -1.7632   -1.9728 C   0  0  0  0  0  0  0  0  0  0  0  0
   -1.6238   -1.0413   -1.6697 C   0  0  0  0  0  0  0  0  0  0  0  0
   -0.7001   -0.4968    0.4617 C   0  0  0  0  0  0  0  0  0  0  0  0
   -1.7500   -0.3911   -0.4455 C   0  0  0  0  0  0  0  0  0  0  0  0
   -2.9388    0.3963   -0.1184 C   0  0  0  0  0  0  0  0  0  0  0  0
   -4.3101    0.0218   -0.2426 C   0  0  0  0  0  0  0  0  0  0  0  0
   -4.8663   -1.2660   -0.7353 C   0  0  0  0  0  0  0  0  0  0  0  0
   -2.9964    1.6587    0.3851 C   0  0  0  0  0  0  0  0  0  0  0  0
   -1.9573    2.6515    0.7393 C   0  0  0  0  0  0  0  0  0  0  0  0
   -4.2733    2.0049    0.5500 O   0  0  0  0  0  0  0  0  0  0  0  0
   -5.0894    0.9804    0.1618 N   0  0  0  0  0  0  0  0  0  0  0  0
    3.6109   -0.9239    0.1325 H   0  0  0  0  0  0  0  0  0  0  0  0
    2.3399    1.5080    1.2255 H   0  0  0  0  0  0  0  0  0  0  0  0
    4.4487    2.3612    1.2151 H   0  0  0  0  0  0  0  0  0  0  0  0
    5.1048    0.9382    0.4360 H   0  0  0  0  0  0  0  0  0  0  0  0
    2.4929    0.5989   -1.6612 H   0  0  0  0  0  0  0  0  0  0  0  0
    1.1671    1.4379   -0.8665 H   0  0  0  0  0  0  0  0  0  0  0  0
    4.9489    3.3867   -0.8819 H   0  0  0  0  0  0  0  0  0  0  0  0
    4.8554    1.8513   -1.7306 H   0  0  0  0  0  0  0  0  0  0  0  0
    2.4964    3.5138   -0.7453 H   0  0  0  0  0  0  0  0  0  0  0  0
    2.7662    2.9312   -2.3847 H   0  0  0  0  0  0  0  0  0  0  0  0
   -0.7876   -0.0243    1.4302 H   0  0  0  0  0  0  0  0  0  0  0  0
    2.0172   -3.4627   -0.8286 H   0  0  0  0  0  0  0  0  0  0  0  0
    1.6595   -3.0509   -2.5018 H   0  0  0  0  0  0  0  0  0  0  0  0
    2.6949   -2.0099   -1.5487 H   0  0  0  0  0  0  0  0  0  0  0  0
   -0.4117   -2.2562   -2.9341 H   0  0  0  0  0  0  0  0  0  0  0  0
   -2.4142   -0.9712   -2.4056 H   0  0  0  0  0  0  0  0  0  0  0  0
   -4.3747   -2.1086   -0.2499 H   0  0  0  0  0  0  0  0  0  0  0  0
   -5.9351   -1.3276   -0.5411 H   0  0  0  0  0  0  0  0  0  0  0  0
   -4.7111   -1.3740   -1.8092 H   0  0  0  0  0  0  0  0  0  0  0  0
   -2.2084    3.6385    0.3517 H   0  0  0  0  0  0  0  0  0  0  0  0
   -1.8392    2.7364    1.8206 H   0  0  0  0  0  0  0  0  0  0  0  0
   -0.9981    2.3550    0.3192 H   0  0  0  0  0  0  0  0  0  0  0  0
  1  2  2  0
  2  3  2  0
  2  4  1  6
  2 10  1  0
  4  5  1  0
  5  6  1  0
  5  9  1  0
  6  7  1  0
  7  8  1  0
  8  9  1  0
 10 11  2  0
 10 15  1  0
 11 12  1  0
 11 13  1  0
 13 14  2  0
 14 16  1  0
 15 16  2  0
 16 17  1  0
 17 18  1  0
 17 20  2  0
 18 19  1  0
 18 23  2  0
 20 21  1  0
 20 22  1  0
 22 23  1  0
  4 24  1  0
  5 25  1  1
  6 26  1  0
  6 27  1  0
  9 28  1  0
  9 29  1  0
  7 30  1  0
  7 31  1  0
  8 32  1  0
  8 33  1  0
 15 34  1  0
 12 35  1  0
 12 36  1  0
 12 37  1  0
 13 38  1  0
 14 39  1  0
 19 40  1  0
 19 41  1  0
 19 42  1  0
 21 43  1  0
 21 44  1  0
 21 45  1  0
M  END
