
     RDKit          3D

 61 65  0  0  0  0  0  0  0  0999 V2000
   -0.6016    0.5414    6.5136 C   0  0  1  0  0  0  0  0  0  0  0  0
    0.5917   -0.1884    6.8896 N   0  0  0  0  0  0  0  0  0  0  0  0
   -0.3674    1.9576    6.7217 N   0  0  0  0  0  0  0  0  0  0  0  0
    0.9189   -0.1336    8.3083 C   0  0  1  0  0  0  0  0  0  0  0  0
    1.7020   -1.3308    8.7743 C   0  0  0  0  0  0  0  0  0  0  0  0
    2.7987   -0.9254    9.4253 C   0  0  0  0  0  0  0  0  0  0  0  0
    2.8573    0.5413    9.4027 C   0  0  0  0  0  0  0  0  0  0  0  0
    1.7972    1.0136    8.7354 C   0  0  0  0  0  0  0  0  0  0  0  0
   -1.6859   -0.3501    2.4176 C   0  0  0  0  0  0  0  0  0  0  0  0
   -0.3881    0.0612    2.7415 C   0  0  0  0  0  0  0  0  0  0  0  0
   -0.0400    0.3237    4.0547 C   0  0  0  0  0  0  0  0  0  0  0  0
   -0.9673    0.1872    5.0859 C   0  0  0  0  0  0  0  0  0  0  0  0
   -2.2529   -0.2339    4.7638 C   0  0  0  0  0  0  0  0  0  0  0  0
   -2.6116   -0.4976    3.4523 C   0  0  0  0  0  0  0  0  0  0  0  0
   -2.0835   -0.6098    1.0464 C   0  0  0  0  0  0  0  0  0  0  0  0
   -1.1958   -0.3267    0.0689 O   0  0  0  0  0  0  0  0  0  0  0  0
   -3.2293   -1.0899    0.4836 C   0  0  0  0  0  0  0  0  0  0  0  0
   -3.0198   -1.0924   -0.9188 C   0  0  0  0  0  0  0  0  0  0  0  0
   -1.7589   -0.6146   -1.1242 C   0  0  0  0  0  0  0  0  0  0  0  0
   -0.9723   -0.3750   -2.3198 C   0  0  0  0  0  0  0  0  0  0  0  0
    0.3756   -0.0155   -2.2564 C   0  0  0  0  0  0  0  0  0  0  0  0
    1.1044    0.2060   -3.4144 C   0  0  0  0  0  0  0  0  0  0  0  0
    0.5223    0.0806   -4.6732 C   0  0  0  0  0  0  0  0  0  0  0  0
   -0.8254   -0.2746   -4.7329 C   0  0  0  0  0  0  0  0  0  0  0  0
   -1.5589   -0.4990   -3.5815 C   0  0  0  0  0  0  0  0  0  0  0  0
    1.3167    0.3776   -5.9342 C   0  0  2  0  0  0  0  0  0  0  0  0
    0.7192   -0.3313   -7.0551 N   0  0  0  0  0  0  0  0  0  0  0  0
    2.7307    0.1769   -5.6928 N   0  0  0  0  0  0  0  0  0  0  0  0
    1.2754   -0.0072   -8.3578 C   0  0  1  0  0  0  0  0  0  0  0  0
    0.7037   -0.8633   -9.4524 C   0  0  0  0  0  0  0  0  0  0  0  0
    0.2176   -0.0833  -10.4254 C   0  0  0  0  0  0  0  0  0  0  0  0
    0.3831    1.3225  -10.0407 C   0  0  0  0  0  0  0  0  0  0  0  0
    0.9644    1.3859   -8.8360 C   0  0  0  0  0  0  0  0  0  0  0  0
   -1.4591    0.2770    7.1545 H   0  0  0  0  0  0  0  0  0  0  0  0
    0.4733   -1.1551    6.6163 H   0  0  0  0  0  0  0  0  0  0  0  0
    0.3634    2.2776    6.0955 H   0  0  0  0  0  0  0  0  0  0  0  0
   -1.2022    2.4780    6.4815 H   0  0  0  0  0  0  0  0  0  0  0  0
    0.0028   -0.0868    8.9296 H   0  0  0  0  0  0  0  0  0  0  0  0
    1.3752   -2.3501    8.6191 H   0  0  0  0  0  0  0  0  0  0  0  0
    3.5304   -1.5607    9.9052 H   0  0  0  0  0  0  0  0  0  0  0  0
    3.6420    1.1274    9.8613 H   0  0  0  0  0  0  0  0  0  0  0  0
    1.5480    2.0460    8.5467 H   0  0  0  0  0  0  0  0  0  0  0  0
    0.9723    0.6387    4.2777 H   0  0  0  0  0  0  0  0  0  0  0  0
   -2.9922   -0.3500    5.5478 H   0  0  0  0  0  0  0  0  0  0  0  0
   -3.6249   -0.8115    3.2355 H   0  0  0  0  0  0  0  0  0  0  0  0
   -4.1177   -1.4131    1.0015 H   0  0  0  0  0  0  0  0  0  0  0  0
   -3.7187   -1.4146   -1.6736 H   0  0  0  0  0  0  0  0  0  0  0  0
    0.8731    0.0929   -1.3015 H   0  0  0  0  0  0  0  0  0  0  0  0
    2.1478    0.4783   -3.3356 H   0  0  0  0  0  0  0  0  0  0  0  0
   -1.3099   -0.3780   -5.6940 H   0  0  0  0  0  0  0  0  0  0  0  0
   -2.6048   -0.7643   -3.6730 H   0  0  0  0  0  0  0  0  0  0  0  0
    1.1938    1.4459   -6.1453 H   0  0  0  0  0  0  0  0  0  0  0  0
    0.7955   -1.3312   -6.8995 H   0  0  0  0  0  0  0  0  0  0  0  0
    2.9384   -0.8086   -5.5793 H   0  0  0  0  0  0  0  0  0  0  0  0
    3.2810    0.5114   -6.4728 H   0  0  0  0  0  0  0  0  0  0  0  0
    2.3764   -0.1282   -8.3981 H   0  0  0  0  0  0  0  0  0  0  0  0
    0.7268   -1.9442   -9.4326 H   0  0  0  0  0  0  0  0  0  0  0  0
   -0.2269   -0.4168  -11.3528 H   0  0  0  0  0  0  0  0  0  0  0  0
    0.0826    2.1636  -10.6506 H   0  0  0  0  0  0  0  0  0  0  0  0
    1.2241    2.2861   -8.2971 H   0  0  0  0  0  0  0  0  0  0  0  0
    0.3596    0.1783    1.9683 H   0  0  0  0  0  0  0  0  0  0  0  0
  1  2  1  0
  1  3  1  0
  1 12  1  0
  1 34  1  1
  2  4  1  0
  2 35  1  0
  3 36  1  0
  3 37  1  0
  4  5  1  0
  4  8  1  0
  4 38  1  1
  5  6  2  0
  5 39  1  0
  6  7  1  0
  6 40  1  0
  7  8  2  0
  7 41  1  0
  8 42  1  0
  9 10  2  0
  9 14  1  0
  9 15  1  0
 10 11  1  0
 10 61  1  0
 11 12  2  0
 11 43  1  0
 12 13  1  0
 13 14  2  0
 13 44  1  0
 14 45  1  0
 15 16  1  0
 15 17  2  0
 16 19  1  0
 17 18  1  0
 17 46  1  0
 18 19  2  0
 18 47  1  0
 19 20  1  0
 20 21  2  0
 20 25  1  0
 21 22  1  0
 21 48  1  0
 22 23  2  0
 22 49  1  0
 23 24  1  0
 23 26  1  0
 24 25  2  0
 24 50  1  0
 25 51  1  0
 26 27  1  0
 26 28  1  0
 26 52  1  6
 27 29  1  0
 27 53  1  0
 28 54  1  0
 28 55  1  0
 29 30  1  0
 29 33  1  0
 29 56  1  1
 30 31  2  0
 30 57  1  0
 31 32  1  0
 31 58  1  0
 32 33  2  0
 32 59  1  0
 33 60  1  0
M  END
