
     RDKit          3D

 40 42  0  0  0  0  0  0  0  0999 V2000
    2.4258    1.7580    0.3035 C   0  0  0  0  0  0  0  0  0  0  0  0
    0.2088   -0.4009    1.9924 C   0  0  2  0  0  0  0  0  0  0  0  0
   -1.6554   -1.6543    0.8685 C   0  0  0  0  0  0  0  0  0  0  0  0
   -3.4443   -0.5361   -0.2746 C   0  0  0  0  0  0  0  0  0  0  0  0
   -1.6833    0.7382    0.7532 C   0  0  0  0  0  0  0  0  0  0  0  0
   -4.7003   -0.5614   -1.0856 C   0  0  1  0  0  0  0  0  0  0  0  0
    0.0347    0.2949    3.3337 C   0  0  0  0  0  0  0  0  0  0  0  0
    2.8933    3.1382   -0.0022 C   0  0  0  0  0  0  0  0  0  0  0  0
    3.9151    0.1287   -1.1417 C   0  0  0  0  0  0  0  0  0  0  0  0
    4.6697    0.8263   -1.7935 O   0  0  0  0  0  0  0  0  0  0  0  0
    2.9177    0.5339   -0.2015 C   0  0  0  0  0  0  0  0  0  0  0  0
    3.9373   -1.2643   -1.2614 N   0  0  0  0  0  0  0  0  0  0  0  0
    3.1304   -2.1443   -0.6072 C   0  0  0  0  0  0  0  0  0  0  0  0
    2.2182   -1.7777    0.2378 N   0  0  0  0  0  0  0  0  0  0  0  0
    2.1433   -0.4407    0.4109 C   0  0  0  0  0  0  0  0  0  0  0  0
    1.2841    0.2008    1.2194 N   0  0  0  0  0  0  0  0  0  0  0  0
    1.4489    1.5311    1.1507 N   0  0  0  0  0  0  0  0  0  0  0  0
    4.1939    3.2956    0.5196 O   0  0  0  0  0  0  0  0  0  0  0  0
   -1.0694   -0.4365    1.1841 C   0  0  0  0  0  0  0  0  0  0  0  0
   -2.8602    0.6913    0.0284 C   0  0  0  0  0  0  0  0  0  0  0  0
   -5.5952    0.3365   -0.6512 F   0  0  0  0  0  0  0  0  0  0  0  0
   -4.4626   -0.2669   -2.3737 F   0  0  0  0  0  0  0  0  0  0  0  0
   -5.3018   -1.7546   -1.0666 F   0  0  0  0  0  0  0  0  0  0  0  0
   -2.8387   -1.7111    0.1446 C   0  0  0  0  0  0  0  0  0  0  0  0
    0.5263   -1.4290    2.1734 H   0  0  0  0  0  0  0  0  0  0  0  0
   -1.1880   -2.5769    1.1892 H   0  0  0  0  0  0  0  0  0  0  0  0
   -1.2432    1.7008    0.9785 H   0  0  0  0  0  0  0  0  0  0  0  0
   -0.7294   -0.2271    3.9080 H   0  0  0  0  0  0  0  0  0  0  0  0
    0.9631    0.2699    3.9035 H   0  0  0  0  0  0  0  0  0  0  0  0
   -0.2751    1.3322    3.2208 H   0  0  0  0  0  0  0  0  0  0  0  0
    2.8769    3.2829   -1.0876 H   0  0  0  0  0  0  0  0  0  0  0  0
    2.1842    3.8534    0.4313 H   0  0  0  0  0  0  0  0  0  0  0  0
    4.3670   -3.8829   -0.7084 H   0  0  0  0  0  0  0  0  0  0  0  0
    2.6655   -4.1966   -0.3254 H   0  0  0  0  0  0  0  0  0  0  0  0
    3.1502   -3.7782   -1.9756 H   0  0  0  0  0  0  0  0  0  0  0  0
    4.6160   -1.6436   -1.9101 H   0  0  0  0  0  0  0  0  0  0  0  0
    4.5938    4.0580    0.0914 H   0  0  0  0  0  0  0  0  0  0  0  0
   -3.3169    1.6190   -0.2918 H   0  0  0  0  0  0  0  0  0  0  0  0
   -3.2698   -2.6766   -0.0816 H   0  0  0  0  0  0  0  0  0  0  0  0
    3.3390   -3.5858   -0.9187 C   0  0  0  0  0  0  0  0  0  0  0  0
 40 13  1  0
 13 12  1  0
 13 14  2  0
 12  9  1  0
 14 15  1  0
  9 10  2  0
  9 11  1  0
 15 11  2  0
 15 16  1  0
 11  1  1  0
  3 24  2  0
  3 19  1  0
 24  4  1  0
 16  2  1  0
 16 17  1  0
  2 19  1  0
  2  7  1  0
 19  5  2  0
  1 17  2  0
  1  8  1  0
  6 23  1  6
  4  6  1  0
  4 20  2  0
 21  6  1  0
  8 18  1  0
  6 22  1  0
  5 20  1  0
  2 25  1  1
  3 26  1  0
  5 27  1  0
  7 28  1  0
  7 29  1  0
  7 30  1  0
  8 31  1  0
  8 32  1  0
 40 33  1  0
 40 34  1  0
 40 35  1  0
 12 36  1  0
 18 37  1  0
 20 38  1  0
 24 39  1  0
M  END
