
     RDKit          3D

 30 32  0  0  0  0  0  0  0  0999 V2000
   -1.4834   -1.7250    0.4901 C   0  0  0  0  0  0  0  0  0  0  0  0
   -2.6818   -0.9194    0.9834 C   0  0  2  0  0  0  0  0  0  0  0  0
   -3.7809   -1.6773    1.4028 O   0  0  0  0  0  0  0  0  0  0  0  0
   -3.0518   -0.1337   -0.2731 C   0  0  1  0  0  0  0  0  0  0  0  0
   -3.7406    1.1664    0.0381 C   0  0  0  0  0  0  0  0  0  0  0  0
   -4.1256    1.8060   -1.1345 F   0  0  0  0  0  0  0  0  0  0  0  0
   -1.8241    0.1122   -0.9419 O   0  0  0  0  0  0  0  0  0  0  0  0
   -0.8403   -0.8088   -0.5481 C   0  0  1  0  0  0  0  0  0  0  0  0
    0.3096   -0.0708   -0.0543 N   0  0  0  0  0  0  0  0  0  0  0  0
    0.3239    1.0074    0.7873 C   0  0  0  0  0  0  0  0  0  0  0  0
    1.5205    1.4438    1.0497 N   0  0  0  0  0  0  0  0  0  0  0  0
    2.3486    0.6085    0.3465 C   0  0  0  0  0  0  0  0  0  0  0  0
    1.6148   -0.3406   -0.3479 C   0  0  0  0  0  0  0  0  0  0  0  0
    2.1022   -1.3016   -1.1304 N   0  0  0  0  0  0  0  0  0  0  0  0
    3.4216   -1.2589   -1.1914 C   0  0  0  0  0  0  0  0  0  0  0  0
    4.2510   -0.4110   -0.5886 N   0  0  0  0  0  0  0  0  0  0  0  0
    3.7465    0.5481    0.1960 C   0  0  0  0  0  0  0  0  0  0  0  0
    4.5755    1.3970    0.8047 N   0  0  0  0  0  0  0  0  0  0  0  0
   -1.8428   -2.6293   -0.0049 H   0  0  0  0  0  0  0  0  0  0  0  0
   -0.7908   -2.0216    1.2771 H   0  0  0  0  0  0  0  0  0  0  0  0
   -2.3678   -0.2236    1.7750 H   0  0  0  0  0  0  0  0  0  0  0  0
   -3.5883   -2.0384    2.2733 H   0  0  0  0  0  0  0  0  0  0  0  0
   -3.7032   -0.7564   -0.9015 H   0  0  0  0  0  0  0  0  0  0  0  0
   -4.6326    0.9725    0.6360 H   0  0  0  0  0  0  0  0  0  0  0  0
   -3.0806    1.8369    0.5935 H   0  0  0  0  0  0  0  0  0  0  0  0
   -0.4746   -1.3736   -1.4082 H   0  0  0  0  0  0  0  0  0  0  0  0
   -0.5829    1.4479    1.1734 H   0  0  0  0  0  0  0  0  0  0  0  0
    3.8958   -2.0109   -1.8129 H   0  0  0  0  0  0  0  0  0  0  0  0
    5.5642    1.3529    0.6278 H   0  0  0  0  0  0  0  0  0  0  0  0
    4.2242    2.1624    1.3529 H   0  0  0  0  0  0  0  0  0  0  0  0
  1  2  1  0
  1  8  1  0
  1 19  1  0
  1 20  1  0
  2  3  1  0
  2  4  1  0
  2 21  1  1
  3 22  1  0
  4  5  1  0
  4  7  1  0
  4 23  1  6
  5  6  1  0
  5 24  1  0
  5 25  1  0
  7  8  1  0
  8  9  1  0
  8 26  1  6
  9 10  1  0
  9 13  1  0
 10 11  2  0
 10 27  1  0
 11 12  1  0
 12 13  2  0
 12 17  1  0
 13 14  1  0
 14 15  2  0
 15 16  1  0
 15 28  1  0
 16 17  2  0
 17 18  1  0
 18 29  1  0
 18 30  1  0
M  END
