
     RDKit          3D

 45 46  0  0  0  0  0  0  0  0999 V2000
    5.8141    3.0769    0.5658 C   0  0  0  0  0  0  0  0  0  0  0  0
    6.4514    1.8312    0.3712 O   0  0  0  0  0  0  0  0  0  0  0  0
    5.7021    0.7950   -0.0512 C   0  0  0  0  0  0  0  0  0  0  0  0
    4.3456    0.8554   -0.3193 C   0  0  0  0  0  0  0  0  0  0  0  0
    6.3914   -0.4240   -0.2232 C   0  0  0  0  0  0  0  0  0  0  0  0
    7.7077   -0.3951    0.0624 O   0  0  0  0  0  0  0  0  0  0  0  0
    8.4440   -1.5904   -0.0895 C   0  0  0  0  0  0  0  0  0  0  0  0
    5.6948   -1.5360   -0.6637 C   0  0  0  0  0  0  0  0  0  0  0  0
    4.3275   -1.4575   -0.9299 C   0  0  0  0  0  0  0  0  0  0  0  0
    3.6413   -0.2700   -0.7613 C   0  0  0  0  0  0  0  0  0  0  0  0
    2.1599   -0.1780   -0.9975 C   0  0  0  0  0  0  0  0  0  0  0  0
    1.3843   -0.3613    0.3029 C   0  0  0  0  0  0  0  0  0  0  0  0
   -0.0389   -0.2413    0.0595 N   0  0  0  0  0  0  0  0  0  0  0  0
   -0.9531   -0.5034    1.0033 C   0  0  0  0  0  0  0  0  0  0  0  0
   -0.6622   -0.8783    2.1303 O   0  0  0  0  0  0  0  0  0  0  0  0
   -2.3841   -0.3121    0.6004 C   0  0  0  0  0  0  0  0  0  0  0  0
   -2.8176   -0.5034   -0.7103 C   0  0  0  0  0  0  0  0  0  0  0  0
   -4.1522   -0.3407   -1.0381 C   0  0  0  0  0  0  0  0  0  0  0  0
   -3.3044    0.0328    1.5843 C   0  0  0  0  0  0  0  0  0  0  0  0
   -4.6403    0.2172    1.2644 C   0  0  0  0  0  0  0  0  0  0  0  0
   -5.0507    0.0244   -0.0453 C   0  0  0  0  0  0  0  0  0  0  0  0
   -6.7550    0.2523   -0.4802 S   0  0  1  0  0  0  0  0  0  0  0  0
   -7.3986    0.9649    0.6140 O   0  0  0  0  0  0  0  0  0  0  0  0
   -6.8332    0.8115   -1.8213 O   0  0  0  0  0  0  0  0  0  0  0  0
   -7.2615   -1.3119   -0.6105 N   0  0  0  0  0  0  0  0  0  0  0  0
    5.3848    3.4660   -0.3613 H   0  0  0  0  0  0  0  0  0  0  0  0
    5.0244    3.0188    1.3193 H   0  0  0  0  0  0  0  0  0  0  0  0
    6.5807    3.7654    0.9129 H   0  0  0  0  0  0  0  0  0  0  0  0
    3.8050    1.7854   -0.1925 H   0  0  0  0  0  0  0  0  0  0  0  0
    8.0657   -2.3888    0.5550 H   0  0  0  0  0  0  0  0  0  0  0  0
    8.4414   -1.9448   -1.1239 H   0  0  0  0  0  0  0  0  0  0  0  0
    9.4672   -1.3631    0.1998 H   0  0  0  0  0  0  0  0  0  0  0  0
    6.2015   -2.4806   -0.8114 H   0  0  0  0  0  0  0  0  0  0  0  0
    3.8082   -2.3428   -1.2756 H   0  0  0  0  0  0  0  0  0  0  0  0
    1.9126    0.7948   -1.4326 H   0  0  0  0  0  0  0  0  0  0  0  0
    1.8466   -0.9394   -1.7157 H   0  0  0  0  0  0  0  0  0  0  0  0
    1.5984   -1.3458    0.7223 H   0  0  0  0  0  0  0  0  0  0  0  0
    1.7094    0.3795    1.0400 H   0  0  0  0  0  0  0  0  0  0  0  0
   -0.3275    0.2281   -0.7841 H   0  0  0  0  0  0  0  0  0  0  0  0
   -2.1267   -0.8022   -1.4879 H   0  0  0  0  0  0  0  0  0  0  0  0
   -4.4779   -0.5030   -2.0567 H   0  0  0  0  0  0  0  0  0  0  0  0
   -2.9791    0.1730    2.6062 H   0  0  0  0  0  0  0  0  0  0  0  0
   -5.3432    0.5049    2.0338 H   0  0  0  0  0  0  0  0  0  0  0  0
   -7.4271   -1.7515    0.2892 H   0  0  0  0  0  0  0  0  0  0  0  0
   -8.0827   -1.3928   -1.2024 H   0  0  0  0  0  0  0  0  0  0  0  0
  7  6  1  0
  8  9  2  0
  8  5  1  0
  9 10  1  0
 12 13  1  0
 12 11  1  0
  6  5  1  0
  5  3  2  0
 13 14  1  0
 15 14  2  0
 14 16  1  0
 10 11  1  0
 10  4  2  0
  3  4  1  0
  3  2  1  0
 16 19  1  0
 16 17  2  0
 19 20  2  0
 17 18  1  0
  1  2  1  0
 20 21  1  0
 18 21  2  0
 21 22  1  0
 22 25  1  6
 24 22  2  0
 22 23  2  0
  1 26  1  0
  1 27  1  0
  1 28  1  0
  4 29  1  0
  7 30  1  0
  7 31  1  0
  7 32  1  0
  8 33  1  0
  9 34  1  0
 11 35  1  0
 11 36  1  0
 12 37  1  0
 12 38  1  0
 13 39  1  0
 17 40  1  0
 18 41  1  0
 19 42  1  0
 20 43  1  0
 25 44  1  0
 25 45  1  0
M  END
