
     RDKit          3D

 48 51  0  0  0  0  0  0  0  0999 V2000
    1.1081   -0.1150    0.4925 C   0  0  1  0  0  0  0  0  0  0  0  0
    2.2186   -1.1439    0.2913 C   0  0  0  0  0  0  0  0  0  0  0  0
    2.8649   -1.2548   -0.9398 C   0  0  0  0  0  0  0  0  0  0  0  0
    3.8818   -2.1770   -1.1262 C   0  0  0  0  0  0  0  0  0  0  0  0
    4.2770   -3.0061   -0.0830 C   0  0  0  0  0  0  0  0  0  0  0  0
    3.6487   -2.8950    1.1464 C   0  0  0  0  0  0  0  0  0  0  0  0
    2.6289   -1.9677    1.3333 C   0  0  0  0  0  0  0  0  0  0  0  0
    1.6347    1.2653    0.1098 C   0  0  0  0  0  0  0  0  0  0  0  0
    1.4250    1.8238   -1.1464 C   0  0  0  0  0  0  0  0  0  0  0  0
    1.9633    3.0638   -1.4690 C   0  0  0  0  0  0  0  0  0  0  0  0
    2.7177    3.7612   -0.5388 C   0  0  0  0  0  0  0  0  0  0  0  0
    2.9344    3.2067    0.7166 C   0  0  0  0  0  0  0  0  0  0  0  0
    2.3981    1.9696    1.0394 C   0  0  0  0  0  0  0  0  0  0  0  0
   -0.1062   -0.4653   -0.3981 C   0  0  0  0  0  0  0  0  0  0  0  0
    0.6941   -0.0254    1.8256 O   0  0  0  0  0  0  0  0  0  0  0  0
   -0.0689   -1.2002   -1.3507 O   0  0  0  0  0  0  0  0  0  0  0  0
   -1.1835    0.1642    0.0177 O   0  0  0  0  0  0  0  0  0  0  0  0
   -2.4008    0.0078   -0.7345 C   0  0  1  0  0  0  0  0  0  0  0  0
   -3.0303   -1.3959   -0.5613 C   0  0  0  0  0  0  0  0  0  0  0  0
   -4.3558   -1.3196    0.0296 N   0  0  0  0  0  0  0  0  0  0  0  0
   -4.2677   -0.6994    1.3473 C   0  0  0  0  0  0  0  0  0  0  0  0
   -3.7248    0.7472    1.2577 C   0  0  0  0  0  0  0  0  0  0  0  0
   -3.3910    1.0382   -0.2072 C   0  0  2  0  0  0  0  0  0  0  0  0
   -4.6633    0.8959   -1.0458 C   0  0  0  0  0  0  0  0  0  0  0  0
   -5.2297   -0.5282   -0.8282 C   0  0  0  0  0  0  0  0  0  0  0  0
    2.5922   -0.6094   -1.7642 H   0  0  0  0  0  0  0  0  0  0  0  0
    4.3712   -2.2445   -2.0892 H   0  0  0  0  0  0  0  0  0  0  0  0
    5.0733   -3.7248   -0.2266 H   0  0  0  0  0  0  0  0  0  0  0  0
    3.9517   -3.5263    1.9716 H   0  0  0  0  0  0  0  0  0  0  0  0
    2.1752   -1.8994    2.3128 H   0  0  0  0  0  0  0  0  0  0  0  0
    0.8504    1.3059   -1.9044 H   0  0  0  0  0  0  0  0  0  0  0  0
    1.7867    3.4806   -2.4519 H   0  0  0  0  0  0  0  0  0  0  0  0
    3.1356    4.7274   -0.7885 H   0  0  0  0  0  0  0  0  0  0  0  0
    3.5270    3.7383    1.4496 H   0  0  0  0  0  0  0  0  0  0  0  0
    2.5869    1.5533    2.0199 H   0  0  0  0  0  0  0  0  0  0  0  0
    0.3321   -0.8691    2.1191 H   0  0  0  0  0  0  0  0  0  0  0  0
   -2.1821    0.2097   -1.7872 H   0  0  0  0  0  0  0  0  0  0  0  0
   -3.1047   -1.8939   -1.5300 H   0  0  0  0  0  0  0  0  0  0  0  0
   -2.4045   -2.0243    0.0776 H   0  0  0  0  0  0  0  0  0  0  0  0
   -5.2590   -0.7191    1.8050 H   0  0  0  0  0  0  0  0  0  0  0  0
   -3.6205   -1.3198    1.9713 H   0  0  0  0  0  0  0  0  0  0  0  0
   -4.4692    1.4679    1.6025 H   0  0  0  0  0  0  0  0  0  0  0  0
   -2.8459    0.8781    1.8905 H   0  0  0  0  0  0  0  0  0  0  0  0
   -2.9781    2.0429   -0.3193 H   0  0  0  0  0  0  0  0  0  0  0  0
   -5.3854    1.6582   -0.7471 H   0  0  0  0  0  0  0  0  0  0  0  0
   -4.4402    1.0730   -2.1010 H   0  0  0  0  0  0  0  0  0  0  0  0
   -5.3457   -1.0511   -1.7802 H   0  0  0  0  0  0  0  0  0  0  0  0
   -6.2186   -0.4903   -0.3669 H   0  0  0  0  0  0  0  0  0  0  0  0
  8  1  1  0
 14  1  1  0
  1 15  1  1
  1  2  1  0
  3  2  2  0
  2  7  1  0
  3  4  1  0
  3 26  1  0
  4  5  2  0
  4 27  1  0
  5  6  1  0
  5 28  1  0
  7  6  2  0
  6 29  1  0
  7 30  1  0
 13  8  1  0
  9  8  2  0
 10  9  1  0
  9 31  1  0
 11 10  2  0
 10 32  1  0
 11 12  1  0
 11 33  1  0
 12 13  2  0
 12 34  1  0
 13 35  1  0
 17 14  1  0
 14 16  2  0
 15 36  1  0
 17 18  1  0
 23 18  1  0
 18 19  1  0
 18 37  1  6
 20 19  1  0
 19 38  1  0
 19 39  1  0
 21 20  1  0
 25 20  1  0
 22 21  1  0
 21 40  1  0
 21 41  1  0
 22 23  1  0
 22 42  1  0
 22 43  1  0
 23 24  1  0
 23 44  1  1
 24 25  1  0
 24 45  1  0
 24 46  1  0
 25 47  1  0
 25 48  1  0
M  END
