
     RDKit          3D

 27 28  0  0  0  0  0  0  0  0999 V2000
   -5.7700   -0.1410    0.0093 C   0  0  0  0  0  0  0  0  0  0  0  0
   -4.6239   -1.0754    0.0772 C   0  0  0  0  0  0  0  0  0  0  0  0
   -3.3047   -0.3231    0.0703 C   0  0  0  0  0  0  0  0  0  0  0  0
   -0.0113   -1.4557   -0.0166 C   0  0  0  0  0  0  0  0  0  0  0  0
    2.4013   -1.9195   -0.0262 C   0  0  0  0  0  0  0  0  0  0  0  0
    1.3700   -0.9830   -0.0146 C   0  0  0  0  0  0  0  0  0  0  0  0
    1.6940    0.3756   -0.0013 C   0  0  0  0  0  0  0  0  0  0  0  0
    3.0139    0.7872    0.0004 C   0  0  0  0  0  0  0  0  0  0  0  0
    4.0249   -0.1677   -0.0107 C   0  0  0  0  0  0  0  0  0  0  0  0
    3.7299   -1.5218   -0.0237 C   0  0  0  0  0  0  0  0  0  0  0  0
   -7.3256    1.0735    0.4974 N   0  0  0  0  0  0  0  0  0  0  0  0
   -7.2202    1.1684   -0.7917 N   0  0  0  0  0  0  0  0  0  0  0  0
   -6.4560    0.2745    1.0538 N   0  0  0  0  0  0  0  0  0  0  0  0
   -6.2351    0.4022   -1.1280 N   0  0  0  0  0  0  0  0  0  0  0  0
   -2.2264   -1.1461    0.0092 N   0  0  0  0  0  0  0  0  0  0  0  0
   -0.9840   -0.6384    0.0167 N   0  0  0  0  0  0  0  0  0  0  0  0
   -3.2293    0.8847    0.1229 O   0  0  0  0  0  0  0  0  0  0  0  0
    5.8257    0.3916   -0.0090 Br  0  0  0  0  0  0  0  0  0  0  0  0
   -4.6883   -1.6772    0.9865 H   0  0  0  0  0  0  0  0  0  0  0  0
   -4.6598   -1.7699   -0.7649 H   0  0  0  0  0  0  0  0  0  0  0  0
   -0.1576   -2.5378   -0.0470 H   0  0  0  0  0  0  0  0  0  0  0  0
    0.9085    1.1192    0.0064 H   0  0  0  0  0  0  0  0  0  0  0  0
    3.2455    1.8438    0.0096 H   0  0  0  0  0  0  0  0  0  0  0  0
    4.5141   -2.2662   -0.0319 H   0  0  0  0  0  0  0  0  0  0  0  0
   -8.0315    1.5737    1.0216 H   0  0  0  0  0  0  0  0  0  0  0  0
   -2.3611   -2.1514   -0.0291 H   0  0  0  0  0  0  0  0  0  0  0  0
    2.1718   -2.9779   -0.0362 H   0  0  0  0  0  0  0  0  0  0  0  0
 13 11  1  0
 13  1  2  0
 11 12  1  0
  1  2  1  0
  1 14  1  0
  2  3  1  0
 12 14  2  0
  3 15  1  0
  3 17  2  0
 15 16  1  0
 16  4  2  0
  4  6  1  0
  6  5  2  0
  6  7  1  0
  5 10  1  0
  7  8  2  0
 10  9  2  0
  8  9  1  0
  9 18  1  0
  2 19  1  0
  2 20  1  0
  4 21  1  0
  5 27  1  0
  7 22  1  0
  8 23  1  0
 10 24  1  0
 11 25  1  0
 15 26  1  0
M  END
