
     RDKit          3D

 75 77  0  0  0  0  0  0  0  0999 V2000
    2.4467    0.8475    0.3501 O   0  0  0  0  0  0  0  0  0  0  0  0
   -6.4627   -1.8385   -1.2521 O   0  0  0  0  0  0  0  0  0  0  0  0
   -2.7397   -0.2304    1.3851 C   0  0  0  0  0  0  0  0  0  0  0  0
    3.6777    1.5236    0.5717 C   0  0  0  0  0  0  0  0  0  0  0  0
   -3.1012    0.5888   -0.8435 C   0  0  0  0  0  0  0  0  0  0  0  0
   -4.2297   -0.2278   -0.9192 C   0  0  0  0  0  0  0  0  0  0  0  0
   -3.8601   -1.0371    1.2898 C   0  0  0  0  0  0  0  0  0  0  0  0
    1.2980    1.5441    0.4908 C   0  0  0  0  0  0  0  0  0  0  0  0
   -2.7051    1.3996   -2.0465 C   0  0  0  0  0  0  0  0  0  0  0  0
   -4.6280   -1.0508    0.1262 C   0  0  0  0  0  0  0  0  0  0  0  0
    0.1163    0.8175    0.3458 C   0  0  0  0  0  0  0  0  0  0  0  0
   -1.1237    1.4254    0.4783 C   0  0  0  0  0  0  0  0  0  0  0  0
   -1.2080    2.7960    0.7687 C   0  0  0  0  0  0  0  0  0  0  0  0
   -0.0210    3.5045    0.8968 C   0  0  0  0  0  0  0  0  0  0  0  0
    1.2261    2.9057    0.7613 C   0  0  0  0  0  0  0  0  0  0  0  0
   -1.7979    0.6172   -2.9985 C   0  0  0  0  0  0  0  0  0  0  0  0
   -1.4158    1.4296   -4.2270 C   0  0  0  0  0  0  0  0  0  0  0  0
   -5.8716   -1.9308    0.0279 C   0  0  1  0  0  0  0  0  0  0  0  0
   -6.9265   -1.4333    1.0257 C   0  0  0  0  0  0  0  0  0  0  0  0
   -5.4757   -3.3925    0.3157 C   0  0  0  0  0  0  0  0  0  0  0  0
   -2.9970    3.3533    2.4493 C   0  0  0  0  0  0  0  0  0  0  0  0
   -6.6148   -4.4005    0.2398 C   0  0  0  0  0  0  0  0  0  0  0  0
   -7.3661    0.0088    0.8137 C   0  0  0  0  0  0  0  0  0  0  0  0
    6.1006   -1.2218    1.5183 C   0  0  0  0  0  0  0  0  0  0  0  0
    6.7791   -1.4414    0.3254 C   0  0  0  0  0  0  0  0  0  0  0  0
    6.4457   -0.6774   -0.8024 C   0  0  0  0  0  0  0  0  0  0  0  0
    5.4467    0.2821   -0.7034 C   0  0  0  0  0  0  0  0  0  0  0  0
    4.7718    0.5036    0.4930 C   0  0  0  0  0  0  0  0  0  0  0  0
    5.1050   -0.2591    1.6027 C   0  0  0  0  0  0  0  0  0  0  0  0
    6.7314   -0.0208   -3.0829 O   0  0  0  0  0  0  0  0  0  0  0  0
    7.8719   -2.4705    0.2256 C   0  0  0  0  0  0  0  0  0  0  0  0
    8.0176   -3.1531    1.4414 O   0  0  0  0  0  0  0  0  0  0  0  0
   -2.5243    3.4872    1.0024 C   0  0  0  0  0  0  0  0  0  0  0  0
   -2.3441    0.5888    0.3300 C   0  0  0  0  0  0  0  0  0  0  0  0
   -5.8748   -2.2521   -1.8938 H   0  0  0  0  0  0  0  0  0  0  0  0
   -2.1585   -0.2315    2.2995 H   0  0  0  0  0  0  0  0  0  0  0  0
    3.8251    2.3057   -0.1807 H   0  0  0  0  0  0  0  0  0  0  0  0
    3.6734    2.0038    1.5561 H   0  0  0  0  0  0  0  0  0  0  0  0
   -4.8144   -0.1973   -1.8307 H   0  0  0  0  0  0  0  0  0  0  0  0
   -4.1334   -1.6503    2.1399 H   0  0  0  0  0  0  0  0  0  0  0  0
   -3.6036    1.7111   -2.5871 H   0  0  0  0  0  0  0  0  0  0  0  0
   -2.1938    2.3165   -1.7443 H   0  0  0  0  0  0  0  0  0  0  0  0
    0.1744   -0.2425    0.1266 H   0  0  0  0  0  0  0  0  0  0  0  0
   -0.0630    4.5663    1.1113 H   0  0  0  0  0  0  0  0  0  0  0  0
    2.1134    3.5144    0.8698 H   0  0  0  0  0  0  0  0  0  0  0  0
   -0.8960    0.3081   -2.4629 H   0  0  0  0  0  0  0  0  0  0  0  0
   -2.3063   -0.3027   -3.3013 H   0  0  0  0  0  0  0  0  0  0  0  0
   -0.8661    2.3304   -3.9476 H   0  0  0  0  0  0  0  0  0  0  0  0
   -0.7856    0.8544   -4.9060 H   0  0  0  0  0  0  0  0  0  0  0  0
   -2.3014    1.7446   -4.7825 H   0  0  0  0  0  0  0  0  0  0  0  0
   -7.7998   -2.0889    0.9715 H   0  0  0  0  0  0  0  0  0  0  0  0
   -6.5247   -1.5488    2.0358 H   0  0  0  0  0  0  0  0  0  0  0  0
   -4.6900   -3.6767   -0.3933 H   0  0  0  0  0  0  0  0  0  0  0  0
   -5.0128   -3.4512    1.3029 H   0  0  0  0  0  0  0  0  0  0  0  0
   -3.9365    3.8852    2.6050 H   0  0  0  0  0  0  0  0  0  0  0  0
   -3.1565    2.3077    2.7146 H   0  0  0  0  0  0  0  0  0  0  0  0
   -2.2609    3.7644    3.1413 H   0  0  0  0  0  0  0  0  0  0  0  0
   -7.3440   -4.2551    1.0366 H   0  0  0  0  0  0  0  0  0  0  0  0
   -7.1438   -4.3477   -0.7119 H   0  0  0  0  0  0  0  0  0  0  0  0
   -6.2240   -5.4134    0.3412 H   0  0  0  0  0  0  0  0  0  0  0  0
   -6.5318    0.7041    0.9133 H   0  0  0  0  0  0  0  0  0  0  0  0
   -7.8068    0.1551   -0.1722 H   0  0  0  0  0  0  0  0  0  0  0  0
   -8.1179    0.2875    1.5528 H   0  0  0  0  0  0  0  0  0  0  0  0
    6.3476   -1.8015    2.3965 H   0  0  0  0  0  0  0  0  0  0  0  0
    5.1874    0.8793   -1.5680 H   0  0  0  0  0  0  0  0  0  0  0  0
    4.5933   -0.1002    2.5448 H   0  0  0  0  0  0  0  0  0  0  0  0
    8.2556   -0.8109   -1.9227 H   0  0  0  0  0  0  0  0  0  0  0  0
    7.0181   -1.9589   -2.4062 H   0  0  0  0  0  0  0  0  0  0  0  0
    7.2088   -0.2139   -3.8945 H   0  0  0  0  0  0  0  0  0  0  0  0
    7.6384   -3.1635   -0.5959 H   0  0  0  0  0  0  0  0  0  0  0  0
    8.8061   -1.9664   -0.0632 H   0  0  0  0  0  0  0  0  0  0  0  0
    8.7171   -3.8039    1.3355 H   0  0  0  0  0  0  0  0  0  0  0  0
   -2.4204    4.5460    0.7545 H   0  0  0  0  0  0  0  0  0  0  0  0
   -3.2920    3.0874    0.3367 H   0  0  0  0  0  0  0  0  0  0  0  0
    7.1748   -0.9146   -2.0975 C   0  0  0  0  0  0  0  0  0  0  0  0
 22 20  1  0
 23 19  1  0
 20 18  1  0
 19 18  1  0
 18 10  1  0
 18  2  1  6
  7 10  1  0
  7  3  2  0
 10  6  2  0
  3 34  1  0
  6  5  1  0
 34  5  2  0
 34 12  1  0
  5  9  1  0
 11 12  2  0
 11  8  1  0
 12 13  1  0
 21 33  1  0
  1  8  1  0
  1  4  1  0
 29 24  2  0
 29 28  1  0
  8 15  2  0
 24 25  1  0
  9 16  1  0
 13 33  1  0
 13 14  2  0
 28 27  2  0
 28  4  1  0
 32 31  1  0
 25 31  1  0
 25 26  2  0
 27 26  1  0
 15 14  1  0
 26 75  1  0
 16 17  1  0
 75 30  1  0
  2 35  1  0
  3 36  1  0
  4 37  1  0
  4 38  1  0
  6 39  1  0
  7 40  1  0
  9 41  1  0
  9 42  1  0
 11 43  1  0
 14 44  1  0
 15 45  1  0
 16 46  1  0
 16 47  1  0
 17 48  1  0
 17 49  1  0
 17 50  1  0
 19 51  1  0
 19 52  1  0
 20 53  1  0
 20 54  1  0
 21 55  1  0
 21 56  1  0
 21 57  1  0
 22 58  1  0
 22 59  1  0
 22 60  1  0
 23 61  1  0
 23 62  1  0
 23 63  1  0
 24 64  1  0
 27 65  1  0
 29 66  1  0
 75 67  1  0
 75 68  1  0
 30 69  1  0
 31 70  1  0
 31 71  1  0
 32 72  1  0
 33 73  1  0
 33 74  1  0
M  END
