
     RDKit          3D

 32 34  0  0  0  0  0  0  0  0999 V2000
    3.2520   -0.0063   -0.0341 C   0  0  0  0  0  0  0  0  0  0  0  0
    3.1487   -1.3966   -0.2173 C   0  0  0  0  0  0  0  0  0  0  0  0
    1.9192   -2.0183   -0.2851 C   0  0  0  0  0  0  0  0  0  0  0  0
    0.7998   -1.2091   -0.1521 C   0  0  0  0  0  0  0  0  0  0  0  0
    0.8889    0.1805    0.0402 C   0  0  0  0  0  0  0  0  0  0  0  0
    2.1272    0.8003    0.0938 C   0  0  0  0  0  0  0  0  0  0  0  0
    4.5803    0.6076    0.0201 C   0  0  0  0  0  0  0  0  0  0  0  0
    4.7745    1.7634   -0.5691 N   0  0  0  0  0  0  0  0  0  0  0  0
    5.5464   -0.0113    0.6547 N   0  0  0  0  0  0  0  0  0  0  0  0
   -0.5368   -1.4776   -0.1576 N   0  0  0  0  0  0  0  0  0  0  0  0
   -0.3691    0.7054    0.1514 N   0  0  0  0  0  0  0  0  0  0  0  0
   -1.2010   -0.3040    0.0269 C   0  0  0  0  0  0  0  0  0  0  0  0
   -2.6424   -0.1640    0.0904 C   0  0  0  0  0  0  0  0  0  0  0  0
   -3.4993   -1.2540   -0.0965 C   0  0  0  0  0  0  0  0  0  0  0  0
   -4.8680   -1.1125   -0.0211 C   0  0  0  0  0  0  0  0  0  0  0  0
   -5.4061    0.1442    0.2476 C   0  0  0  0  0  0  0  0  0  0  0  0
   -4.5855    1.2380    0.4317 C   0  0  0  0  0  0  0  0  0  0  0  0
   -3.1971    1.1069    0.3537 C   0  0  0  0  0  0  0  0  0  0  0  0
   -2.4575    2.1975    0.5361 O   0  0  0  0  0  0  0  0  0  0  0  0
    4.0403   -1.9946   -0.3458 H   0  0  0  0  0  0  0  0  0  0  0  0
    1.8452   -3.0847   -0.4406 H   0  0  0  0  0  0  0  0  0  0  0  0
    2.1988    1.8659    0.2654 H   0  0  0  0  0  0  0  0  0  0  0  0
    4.0919    2.1324   -1.2087 H   0  0  0  0  0  0  0  0  0  0  0  0
    5.6419    2.2693   -0.5108 H   0  0  0  0  0  0  0  0  0  0  0  0
    6.4976    0.3158    0.6612 H   0  0  0  0  0  0  0  0  0  0  0  0
    5.3491   -0.8018    1.2440 H   0  0  0  0  0  0  0  0  0  0  0  0
   -0.9443   -2.3892   -0.2718 H   0  0  0  0  0  0  0  0  0  0  0  0
   -3.0991   -2.2360   -0.3122 H   0  0  0  0  0  0  0  0  0  0  0  0
   -5.5123   -1.9663   -0.1715 H   0  0  0  0  0  0  0  0  0  0  0  0
   -6.4784    0.2694    0.3118 H   0  0  0  0  0  0  0  0  0  0  0  0
   -5.0059    2.2134    0.6388 H   0  0  0  0  0  0  0  0  0  0  0  0
   -1.5028    1.9606    0.4411 H   0  0  0  0  0  0  0  0  0  0  0  0
  1  2  2  0
  1  6  1  0
  1  7  1  0
  2  3  1  0
  2 20  1  0
  3  4  2  0
  3 21  1  0
  4  5  1  0
  4 10  1  0
  5  6  2  0
  5 11  1  0
  6 22  1  0
  7  8  1  0
  7  9  2  0
  8 23  1  0
  8 24  1  0
  9 25  1  0
  9 26  1  0
 10 12  1  0
 10 27  1  0
 11 12  2  0
 12 13  1  0
 13 14  2  0
 13 18  1  0
 14 15  1  0
 14 28  1  0
 15 16  2  0
 15 29  1  0
 16 17  1  0
 16 30  1  0
 17 18  2  0
 17 31  1  0
 18 19  1  0
 19 32  1  0
M  CHG  1   9   1
M  END
