
     RDKit          3D

 40 40  0  0  0  0  0  0  0  0999 V2000
    2.9552   -1.9600    0.2439 C   0  0  0  0  0  0  0  0  0  0  0  0
   -7.3449   -0.0100   -0.5352 C   0  0  0  0  0  0  0  0  0  0  0  0
    2.5917   -0.6125    0.1364 C   0  0  0  0  0  0  0  0  0  0  0  0
    3.6020    0.3379   -0.1547 C   0  0  0  0  0  0  0  0  0  0  0  0
   -3.5646    0.2488    0.4209 C   0  0  0  0  0  0  0  0  0  0  0  0
    3.2990    1.7811   -0.2856 C   0  0  0  0  0  0  0  0  0  0  0  0
    0.1461   -0.8957    0.5369 C   0  0  0  0  0  0  0  0  0  0  0  0
   -1.0761   -0.0306    0.7541 C   0  0  0  0  0  0  0  0  0  0  0  0
   -2.3425   -0.6168    0.1431 C   0  0  0  0  0  0  0  0  0  0  0  0
   -4.8401   -0.3117   -0.1953 C   0  0  0  0  0  0  0  0  0  0  0  0
   -6.0691    0.5424    0.0884 C   0  0  0  0  0  0  0  0  0  0  0  0
    1.2844   -0.1794    0.3112 N   0  0  0  0  0  0  0  0  0  0  0  0
    4.2699   -2.3526    0.0724 C   0  0  0  0  0  0  0  0  0  0  0  0
    4.9212   -0.0948   -0.3225 C   0  0  0  0  0  0  0  0  0  0  0  0
   -8.5659    0.8540   -0.2513 C   0  0  0  0  0  0  0  0  0  0  0  0
    5.2642   -1.4267   -0.2112 C   0  0  0  0  0  0  0  0  0  0  0  0
    4.3498    2.5124   -0.6134 O   0  0  0  0  0  0  0  0  0  0  0  0
    2.2029    2.2805   -0.1152 O   0  0  0  0  0  0  0  0  0  0  0  0
    0.0946   -2.1106    0.5866 O   0  0  0  0  0  0  0  0  0  0  0  0
    2.2074   -2.7030    0.4606 H   0  0  0  0  0  0  0  0  0  0  0  0
   -7.2076   -0.1036   -1.6169 H   0  0  0  0  0  0  0  0  0  0  0  0
   -7.5188   -1.0246   -0.1636 H   0  0  0  0  0  0  0  0  0  0  0  0
   -3.6982    0.3495    1.5034 H   0  0  0  0  0  0  0  0  0  0  0  0
   -3.3922    1.2613    0.0401 H   0  0  0  0  0  0  0  0  0  0  0  0
   -1.2035    0.0723    1.8377 H   0  0  0  0  0  0  0  0  0  0  0  0
   -0.9129    0.9809    0.3741 H   0  0  0  0  0  0  0  0  0  0  0  0
   -2.5120   -1.6225    0.5344 H   0  0  0  0  0  0  0  0  0  0  0  0
   -2.2084   -0.7213   -0.9378 H   0  0  0  0  0  0  0  0  0  0  0  0
   -4.7070   -0.4063   -1.2784 H   0  0  0  0  0  0  0  0  0  0  0  0
   -5.0085   -1.3274    0.1793 H   0  0  0  0  0  0  0  0  0  0  0  0
   -5.8982    1.5603   -0.2797 H   0  0  0  0  0  0  0  0  0  0  0  0
   -6.2061    0.6320    1.1718 H   0  0  0  0  0  0  0  0  0  0  0  0
    1.1809    0.8277    0.2517 H   0  0  0  0  0  0  0  0  0  0  0  0
    4.5155   -3.4027    0.1646 H   0  0  0  0  0  0  0  0  0  0  0  0
    5.6965    0.6249   -0.5419 H   0  0  0  0  0  0  0  0  0  0  0  0
   -9.4606    0.4557   -0.7310 H   0  0  0  0  0  0  0  0  0  0  0  0
   -8.7657    0.9166    0.8200 H   0  0  0  0  0  0  0  0  0  0  0  0
   -8.4218    1.8727   -0.6172 H   0  0  0  0  0  0  0  0  0  0  0  0
    6.2913   -1.7373   -0.3430 H   0  0  0  0  0  0  0  0  0  0  0  0
    4.0929    3.4445   -0.6787 H   0  0  0  0  0  0  0  0  0  0  0  0
 18  6  2  0
 14 16  2  0
 14  4  1  0
  6  4  1  0
  6 17  1  0
 16 13  1  0
  4  3  2  0
 13  1  2  0
  3 12  1  0
  3  1  1  0
 12  7  1  0
  7 19  2  0
  7  8  1  0
  8  9  1  0
  9  5  1  0
  5 10  1  0
 11 10  1  0
 11  2  1  0
  2 15  1  0
  1 20  1  0
  2 21  1  0
  2 22  1  0
  5 23  1  0
  5 24  1  0
  8 25  1  0
  8 26  1  0
  9 27  1  0
  9 28  1  0
 10 29  1  0
 10 30  1  0
 11 31  1  0
 11 32  1  0
 12 33  1  0
 13 34  1  0
 14 35  1  0
 15 36  1  0
 15 37  1  0
 15 38  1  0
 16 39  1  0
 17 40  1  0
M  END
