
     RDKit          3D

 43 46  0  0  0  0  0  0  0  0999 V2000
    4.4159   -2.4554   -0.3555 N   0  0  0  0  0  0  0  0  0  0  0  0
    3.6658   -3.6423   -0.7330 C   0  0  0  0  0  0  0  0  0  0  0  0
    1.6572    1.2078    0.0060 C   0  0  0  0  0  0  0  0  0  0  0  0
    3.8571   -1.2368   -0.1521 C   0  0  0  0  0  0  0  0  0  0  0  0
    2.5196    1.9009    0.8466 C   0  0  0  0  0  0  0  0  0  0  0  0
    2.1009    3.8614   -0.1773 C   0  0  0  0  0  0  0  0  0  0  0  0
    1.2126    3.3084   -1.0816 C   0  0  0  0  0  0  0  0  0  0  0  0
    0.9979    1.9469   -0.9768 C   0  0  0  0  0  0  0  0  0  0  0  0
   -5.8891   -0.7798   -0.5043 C   0  0  0  0  0  0  0  0  0  0  0  0
    2.4124   -3.8003    0.1186 C   0  0  0  0  0  0  0  0  0  0  0  0
   -3.7105    0.7135    0.7711 N   0  0  0  0  0  0  0  0  0  0  0  0
   -3.4987   -0.4261    0.1378 C   0  0  0  0  0  0  0  0  0  0  0  0
   -2.2243   -0.9760   -0.0374 C   0  0  0  0  0  0  0  0  0  0  0  0
   -1.1215   -0.3079    0.4744 C   0  0  0  0  0  0  0  0  0  0  0  0
   -1.3491    0.8984    1.1472 C   0  0  0  0  0  0  0  0  0  0  0  0
   -2.6467    1.3502    1.2563 C   0  0  0  0  0  0  0  0  0  0  0  0
    0.2185   -0.8574    0.3211 C   0  0  0  0  0  0  0  0  0  0  0  0
    1.4404   -0.2366    0.1476 C   0  0  0  0  0  0  0  0  0  0  0  0
    2.4055   -1.2766    0.0334 C   0  0  0  0  0  0  0  0  0  0  0  0
    1.7392   -2.4783    0.1439 C   0  0  0  0  0  0  0  0  0  0  0  0
    0.4343   -2.2146    0.3105 N   0  0  0  0  0  0  0  0  0  0  0  0
    4.5252   -0.2108   -0.0909 O   0  0  0  0  0  0  0  0  0  0  0  0
    2.7368    3.2094    0.7538 N   0  0  0  0  0  0  0  0  0  0  0  0
   -6.7227   -1.8540   -1.1597 C   0  0  0  0  0  0  0  0  0  0  0  0
   -6.3507    0.2711   -0.1166 O   0  0  0  0  0  0  0  0  0  0  0  0
    2.3477    5.1736   -0.2380 F   0  0  0  0  0  0  0  0  0  0  0  0
    5.4057   -2.4600   -0.5495 H   0  0  0  0  0  0  0  0  0  0  0  0
    3.3789   -3.5964   -1.7890 H   0  0  0  0  0  0  0  0  0  0  0  0
    4.3179   -4.5044   -0.6093 H   0  0  0  0  0  0  0  0  0  0  0  0
    3.0492    1.3810    1.6347 H   0  0  0  0  0  0  0  0  0  0  0  0
    0.7194    3.9091   -1.8323 H   0  0  0  0  0  0  0  0  0  0  0  0
    0.3213    1.4549   -1.6636 H   0  0  0  0  0  0  0  0  0  0  0  0
    1.7755   -4.5764   -0.3067 H   0  0  0  0  0  0  0  0  0  0  0  0
    2.6732   -4.1105    1.1350 H   0  0  0  0  0  0  0  0  0  0  0  0
   -2.1077   -1.8979   -0.5936 H   0  0  0  0  0  0  0  0  0  0  0  0
   -0.5417    1.4583    1.5958 H   0  0  0  0  0  0  0  0  0  0  0  0
   -2.8490    2.2791    1.7774 H   0  0  0  0  0  0  0  0  0  0  0  0
   -0.2769   -2.9123    0.4703 H   0  0  0  0  0  0  0  0  0  0  0  0
   -4.3244   -2.0259   -0.7959 H   0  0  0  0  0  0  0  0  0  0  0  0
   -7.7251   -1.4830   -1.3540 H   0  0  0  0  0  0  0  0  0  0  0  0
   -6.2792   -2.1844   -2.0993 H   0  0  0  0  0  0  0  0  0  0  0  0
   -6.7937   -2.7262   -0.5076 H   0  0  0  0  0  0  0  0  0  0  0  0
   -4.5698   -1.1344   -0.3926 N   0  0  0  0  0  0  0  0  0  0  0  0
 11 16  2  0
 11 12  1  0
 24  9  1  0
 43 12  1  0
 43  9  1  0
 16 15  1  0
 12 13  2  0
  9 25  2  0
 15 14  2  0
 13 14  1  0
  7  8  2  0
  7  6  1  0
 14 17  1  0
 26  6  1  0
  8  3  1  0
  6 23  2  0
 17 18  2  0
 17 21  1  0
  3  5  2  0
  3 18  1  0
 23  5  1  0
 18 19  1  0
 21 20  1  0
 19 20  2  0
 19  4  1  0
 20 10  1  0
  4 22  2  0
  4  1  1  0
 10  2  1  0
  1  2  1  0
  1 27  1  0
  2 28  1  0
  2 29  1  0
  5 30  1  0
  7 31  1  0
  8 32  1  0
 10 33  1  0
 10 34  1  0
 13 35  1  0
 15 36  1  0
 16 37  1  0
 21 38  1  0
 43 39  1  0
 24 40  1  0
 24 41  1  0
 24 42  1  0
M  END
