
     RDKit          3D

 24 24  0  0  0  0  0  0  0  0999 V2000
   -4.3285   -0.0584   -1.3294 C   0  0  0  0  0  0  0  0  0  0  0  0
   -3.4219   -0.0045   -0.1252 C   0  0  0  0  0  0  0  0  0  0  0  0
   -1.9454   -0.0340   -0.4069 C   0  0  0  0  0  0  0  0  0  0  0  0
   -1.0506    0.0299    0.8239 C   0  0  0  0  0  0  0  0  0  0  0  0
    0.4055   -0.0128    0.4494 C   0  0  0  0  0  0  0  0  0  0  0  0
    1.0761   -1.2251    0.3008 C   0  0  0  0  0  0  0  0  0  0  0  0
    2.4072   -1.2785   -0.0818 C   0  0  0  0  0  0  0  0  0  0  0  0
    3.1068   -0.0997   -0.3282 C   0  0  0  0  0  0  0  0  0  0  0  0
    2.4545    1.1212   -0.1844 C   0  0  0  0  0  0  0  0  0  0  0  0
    1.1209    1.1536    0.1990 C   0  0  0  0  0  0  0  0  0  0  0  0
   -3.8691    0.0551    0.9991 O   0  0  0  0  0  0  0  0  0  0  0  0
    4.4031   -0.1972   -0.6945 O   0  0  0  0  0  0  0  0  0  0  0  0
   -3.7780   -0.0588   -2.2680 H   0  0  0  0  0  0  0  0  0  0  0  0
   -4.9400   -0.9611   -1.2873 H   0  0  0  0  0  0  0  0  0  0  0  0
   -1.7431   -0.9381   -0.9935 H   0  0  0  0  0  0  0  0  0  0  0  0
   -1.7270    0.7914   -1.0947 H   0  0  0  0  0  0  0  0  0  0  0  0
   -1.2622    0.9448    1.3810 H   0  0  0  0  0  0  0  0  0  0  0  0
   -1.2848   -0.8019    1.4918 H   0  0  0  0  0  0  0  0  0  0  0  0
    0.5508   -2.1539    0.4925 H   0  0  0  0  0  0  0  0  0  0  0  0
    2.9071   -2.2334   -0.1897 H   0  0  0  0  0  0  0  0  0  0  0  0
    2.9837    2.0499   -0.3679 H   0  0  0  0  0  0  0  0  0  0  0  0
    0.6336    2.1154    0.3115 H   0  0  0  0  0  0  0  0  0  0  0  0
    4.7743    0.6789   -0.8453 H   0  0  0  0  0  0  0  0  0  0  0  0
   -5.0074    0.7949   -1.3217 H   0  0  0  0  0  0  0  0  0  0  0  0
  1  2  1  0
 11  2  2  0
  2  3  1  0
  3  4  1  0
  4  5  1  0
  6  5  2  0
  6  7  1  0
  5 10  1  0
  7  8  2  0
 10  9  2  0
  8  9  1  0
  8 12  1  0
  1 13  1  0
  1 14  1  0
  3 15  1  0
  3 16  1  0
  4 17  1  0
  4 18  1  0
  6 19  1  0
  7 20  1  0
  9 21  1  0
 10 22  1  0
 12 23  1  0
  1 24  1  0
M  END
