
     RDKit          3D

 18 18  0  0  0  0  0  0  0  0999 V2000
    0.0340    0.0172   -0.1228 C   0  0  0  0  0  0  0  0  0  0  0  0
    2.4540    0.2192    0.8963 O   0  0  0  0  0  0  0  0  0  0  0  0
    1.7720   -0.2690   -0.2835 S   0  0  1  0  0  0  0  0  0  0  0  0
   -0.3793    1.3453   -0.0064 C   0  0  0  0  0  0  0  0  0  0  0  0
    1.8797   -1.8606   -0.3308 O   0  0  0  0  0  0  0  0  0  0  0  0
   -0.8794   -1.0284   -0.1515 C   0  0  0  0  0  0  0  0  0  0  0  0
    2.2031    0.1638   -1.5931 O   0  0  0  0  0  0  0  0  0  0  0  0
   -2.6585    0.5631    0.0788 C   0  0  0  0  0  0  0  0  0  0  0  0
    0.5588    2.3064   -0.0069 O   0  0  0  0  0  0  0  0  0  0  0  0
   -2.2376   -0.7574   -0.0475 C   0  0  0  0  0  0  0  0  0  0  0  0
   -3.0893   -1.8021   -0.0781 O   0  0  0  0  0  0  0  0  0  0  0  0
   -1.7409    1.5993    0.0990 C   0  0  0  0  0  0  0  0  0  0  0  0
    1.9130   -2.2557    0.5568 H   0  0  0  0  0  0  0  0  0  0  0  0
   -0.5527   -2.0538   -0.2577 H   0  0  0  0  0  0  0  0  0  0  0  0
   -3.7142    0.7931    0.1628 H   0  0  0  0  0  0  0  0  0  0  0  0
    0.1528    3.1798    0.0413 H   0  0  0  0  0  0  0  0  0  0  0  0
   -4.0010   -1.4957   -0.0225 H   0  0  0  0  0  0  0  0  0  0  0  0
   -2.0914    2.6200    0.1973 H   0  0  0  0  0  0  0  0  0  0  0  0
  4  1  2  0
  3  1  1  0
  1  6  1  0
  2  3  2  0
  3  7  2  0
  3  5  1  6
  9  4  1  0
  4 12  1  0
  5 13  1  0
  6 10  2  0
  6 14  1  0
 12  8  2  0
  8 10  1  0
  8 15  1  0
  9 16  1  0
 10 11  1  0
 11 17  1  0
 12 18  1  0
M  END
