
     RDKit          3D

 49 51  0  0  0  0  0  0  0  0999 V2000
    7.6480   -0.5121    0.6456 N   0  0  0  0  0  0  0  0  0  0  0  0
    6.4578    0.0781    0.3396 C   0  0  0  0  0  0  0  0  0  0  0  0
    6.3863    1.4605    0.0863 C   0  0  0  0  0  0  0  0  0  0  0  0
    5.1590    2.0306   -0.1724 C   0  0  0  0  0  0  0  0  0  0  0  0
    5.0268    3.4930   -0.4672 C   0  0  0  0  0  0  0  0  0  0  0  0
    5.3795   -0.6954    0.3367 N   0  0  0  0  0  0  0  0  0  0  0  0
    4.1938   -0.1367    0.0907 C   0  0  0  0  0  0  0  0  0  0  0  0
    4.0238    1.2074   -0.1673 C   0  0  0  0  0  0  0  0  0  0  0  0
    3.0603   -1.1245    0.1101 C   0  0  0  0  0  0  0  0  0  0  0  0
    1.8370   -0.4513   -0.0665 O   0  0  0  0  0  0  0  0  0  0  0  0
    0.6940   -1.1670   -0.0563 C   0  0  0  0  0  0  0  0  0  0  0  0
   -0.4788   -0.4332   -0.1989 C   0  0  0  0  0  0  0  0  0  0  0  0
   -1.7144   -1.0740   -0.2002 C   0  0  0  0  0  0  0  0  0  0  0  0
   -1.7799   -2.4618   -0.0588 C   0  0  0  0  0  0  0  0  0  0  0  0
   -0.5983   -3.1735    0.0823 C   0  0  0  0  0  0  0  0  0  0  0  0
    0.6425   -2.5536    0.0878 C   0  0  0  0  0  0  0  0  0  0  0  0
   -2.7891   -0.2774   -0.3435 O   0  0  0  0  0  0  0  0  0  0  0  0
   -4.0829   -0.8576   -0.3122 C   0  0  0  0  0  0  0  0  0  0  0  0
   -5.1220    0.2412   -0.4111 C   0  0  2  0  0  0  0  0  0  0  0  0
   -5.0448    1.2363    0.7461 C   0  0  0  0  0  0  0  0  0  0  0  0
   -6.1871    2.2395    0.6789 C   0  0  0  0  0  0  0  0  0  0  0  0
   -7.4628    1.5460    0.6743 N   0  0  0  0  0  0  0  0  0  0  0  0
   -7.5948    0.6871   -0.4887 C   0  0  0  0  0  0  0  0  0  0  0  0
   -6.5163   -0.3843   -0.4665 C   0  0  0  0  0  0  0  0  0  0  0  0
    7.6895   -1.5137    0.5532 H   0  0  0  0  0  0  0  0  0  0  0  0
    8.4908   -0.0355    0.3726 H   0  0  0  0  0  0  0  0  0  0  0  0
    7.2870    2.0628    0.0937 H   0  0  0  0  0  0  0  0  0  0  0  0
    4.7399    3.6498   -1.5083 H   0  0  0  0  0  0  0  0  0  0  0  0
    4.2494    3.9467    0.1482 H   0  0  0  0  0  0  0  0  0  0  0  0
    5.9583    4.0281   -0.2911 H   0  0  0  0  0  0  0  0  0  0  0  0
    3.0474    1.6251   -0.3676 H   0  0  0  0  0  0  0  0  0  0  0  0
    3.2197   -1.8634   -0.6844 H   0  0  0  0  0  0  0  0  0  0  0  0
    3.0769   -1.6675    1.0624 H   0  0  0  0  0  0  0  0  0  0  0  0
   -0.4301    0.6440   -0.3061 H   0  0  0  0  0  0  0  0  0  0  0  0
   -2.7211   -2.9928   -0.0566 H   0  0  0  0  0  0  0  0  0  0  0  0
   -0.6461   -4.2493    0.1911 H   0  0  0  0  0  0  0  0  0  0  0  0
    1.5346   -3.1526    0.2028 H   0  0  0  0  0  0  0  0  0  0  0  0
   -4.2013   -1.5619   -1.1444 H   0  0  0  0  0  0  0  0  0  0  0  0
   -4.2243   -1.4200    0.6194 H   0  0  0  0  0  0  0  0  0  0  0  0
   -4.9617    0.7852   -1.3510 H   0  0  0  0  0  0  0  0  0  0  0  0
   -5.0981    0.6915    1.6954 H   0  0  0  0  0  0  0  0  0  0  0  0
   -4.0932    1.7712    0.7364 H   0  0  0  0  0  0  0  0  0  0  0  0
   -6.1482    2.9041    1.5443 H   0  0  0  0  0  0  0  0  0  0  0  0
   -6.0521    2.8727   -0.2146 H   0  0  0  0  0  0  0  0  0  0  0  0
   -8.2150    2.2222    0.6809 H   0  0  0  0  0  0  0  0  0  0  0  0
   -8.5824    0.2215   -0.4763 H   0  0  0  0  0  0  0  0  0  0  0  0
   -7.5181    1.2472   -1.4363 H   0  0  0  0  0  0  0  0  0  0  0  0
   -6.6113   -1.0212   -1.3500 H   0  0  0  0  0  0  0  0  0  0  0  0
   -6.6648   -1.0264    0.4083 H   0  0  0  0  0  0  0  0  0  0  0  0
  5  4  1  0
  4  3  1  0
  4  8  2  0
  3  2  2  0
  8  7  1  0
  2  1  1  0
  2  6  1  0
  7  6  2  0
  7  9  1  0
 16 15  2  0
 16 11  1  0
  9 10  1  0
 15 14  1  0
 10 11  1  0
 11 12  2  0
 14 13  2  0
 12 13  1  0
 13 17  1  0
 17 18  1  0
 18 19  1  0
 19 24  1  0
 19 20  1  0
 24 23  1  0
 20 21  1  0
 23 22  1  0
 21 22  1  0
  1 25  1  0
  1 26  1  0
  3 27  1  0
  5 28  1  0
  5 29  1  0
  5 30  1  0
  8 31  1  0
  9 32  1  0
  9 33  1  0
 12 34  1  0
 14 35  1  0
 15 36  1  0
 16 37  1  0
 18 38  1  0
 18 39  1  0
 19 40  1  6
 20 41  1  0
 20 42  1  0
 21 43  1  0
 21 44  1  0
 22 45  1  0
 23 46  1  0
 23 47  1  0
 24 48  1  0
 24 49  1  0
M  END
