
     RDKit          3D

 28 29  0  0  0  0  0  0  0  0999 V2000
    4.6790    0.0144   -0.0807 N   0  0  0  0  0  0  0  0  0  0  0  0
   -3.6264    1.1309   -0.2338 N   0  0  0  0  0  0  0  0  0  0  0  0
    1.2309   -0.2908   -0.5015 C   0  0  0  0  0  0  0  0  0  0  0  0
    0.5644    0.8651   -0.8736 C   0  0  0  0  0  0  0  0  0  0  0  0
   -0.8115    0.9344   -0.7345 C   0  0  0  0  0  0  0  0  0  0  0  0
   -1.5331   -0.1447   -0.2221 C   0  0  0  0  0  0  0  0  0  0  0  0
   -0.8404   -1.2965    0.1479 C   0  0  0  0  0  0  0  0  0  0  0  0
   -2.9898   -0.0655   -0.0802 C   0  0  0  0  0  0  0  0  0  0  0  0
    7.0926    0.0659    0.2320 C   0  0  0  0  0  0  0  0  0  0  0  0
   -3.8614   -1.0857    0.1992 C   0  0  0  0  0  0  0  0  0  0  0  0
    5.7505    0.5714    0.7238 C   0  0  0  0  0  0  0  0  0  0  0  0
    3.3947    0.1670    0.2493 C   0  0  0  0  0  0  0  0  0  0  0  0
    0.5358   -1.3729    0.0120 C   0  0  0  0  0  0  0  0  0  0  0  0
   -4.8825    1.0961   -0.0924 N   0  0  0  0  0  0  0  0  0  0  0  0
    2.9696    0.7141    1.2411 O   0  0  0  0  0  0  0  0  0  0  0  0
    2.5890   -0.3962   -0.6904 O   0  0  0  0  0  0  0  0  0  0  0  0
   -5.4197   -0.4561    0.2525 S   0  0  0  0  0  0  0  0  0  0  0  0
    4.9109   -0.4099   -0.9652 H   0  0  0  0  0  0  0  0  0  0  0  0
    1.1099    1.7058   -1.2823 H   0  0  0  0  0  0  0  0  0  0  0  0
   -1.3256    1.8373   -1.0340 H   0  0  0  0  0  0  0  0  0  0  0  0
   -1.3672   -2.1473    0.5597 H   0  0  0  0  0  0  0  0  0  0  0  0
    7.1623   -1.0194    0.3096 H   0  0  0  0  0  0  0  0  0  0  0  0
    7.2681    0.3472   -0.8072 H   0  0  0  0  0  0  0  0  0  0  0  0
    7.8925    0.4970    0.8317 H   0  0  0  0  0  0  0  0  0  0  0  0
   -3.6485   -2.1311    0.3578 H   0  0  0  0  0  0  0  0  0  0  0  0
    5.7260    1.6635    0.6823 H   0  0  0  0  0  0  0  0  0  0  0  0
    5.6052    0.2871    1.7668 H   0  0  0  0  0  0  0  0  0  0  0  0
    1.0626   -2.2719    0.3044 H   0  0  0  0  0  0  0  0  0  0  0  0
  1 12  1  0
  1 11  1  0
 15 12  2  0
 12 16  1  0
 11  9  1  0
 16  3  1  0
  3 13  2  0
  3  4  1  0
 13  7  1  0
  4  5  2  0
  7  6  2  0
  5  6  1  0
  6  8  1  0
  8 10  2  0
  8  2  1  0
 10 17  1  0
  2 14  2  0
 17 14  1  0
  1 18  1  0
  4 19  1  0
  5 20  1  0
  7 21  1  0
  9 22  1  0
  9 23  1  0
  9 24  1  0
 10 25  1  0
 11 26  1  0
 11 27  1  0
 13 28  1  0
M  END
