
     RDKit          3D

 24 25  0  0  0  0  0  0  0  0999 V2000
    6.8304    3.5054    0.5478 N   0  0  0  0  0  0  0  0  0  0  0  0
    5.7757    3.5520   -0.4359 C   0  0  1  0  0  0  0  0  0  0  0  0
    5.5187    2.1747   -1.0822 C   0  0  0  0  0  0  0  0  0  0  0  0
    4.7230    2.2845   -2.3110 C   0  0  0  0  0  0  0  0  0  0  0  0
    5.1624    2.7502   -3.5930 C   0  0  0  0  0  0  0  0  0  0  0  0
    4.0158    2.6681   -4.4687 C   0  0  0  0  0  0  0  0  0  0  0  0
    6.4743    3.3362   -4.4243 S   0  0  0  0  0  0  0  0  0  0  0  0
    3.3643    1.9450   -2.4462 C   0  0  0  0  0  0  0  0  0  0  0  0
    2.9371    2.1778   -3.7536 N   0  0  0  0  0  0  0  0  0  0  0  0
    4.3064    3.1047   -5.7958 C   0  0  0  0  0  0  0  0  0  0  0  0
    5.6248    3.4906   -5.8748 C   0  0  0  0  0  0  0  0  0  0  0  0
    4.4554    4.0535    0.1471 C   0  0  0  0  0  0  0  0  0  0  0  0
    3.7158    3.5106    0.9723 O   0  0  0  0  0  0  0  0  0  0  0  0
    4.0665    5.2667   -0.3260 O   0  0  0  0  0  0  0  0  0  0  0  0
    6.6314    2.8417    1.2688 H   0  0  0  0  0  0  0  0  0  0  0  0
    6.9898    4.4083    0.9471 H   0  0  0  0  0  0  0  0  0  0  0  0
    6.0915    4.2799   -1.2434 H   0  0  0  0  0  0  0  0  0  0  0  0
    6.5096    1.7000   -1.3241 H   0  0  0  0  0  0  0  0  0  0  0  0
    4.9924    1.5156   -0.3393 H   0  0  0  0  0  0  0  0  0  0  0  0
    2.6796    1.5529   -1.6913 H   0  0  0  0  0  0  0  0  0  0  0  0
    2.0319    2.0223   -4.1069 H   0  0  0  0  0  0  0  0  0  0  0  0
    3.5831    3.1235   -6.6110 H   0  0  0  0  0  0  0  0  0  0  0  0
    6.1125    3.8666   -6.7730 H   0  0  0  0  0  0  0  0  0  0  0  0
    3.2246    5.5272    0.0816 H   0  0  0  0  0  0  0  0  0  0  0  0
  1  2  1  0
  1 15  1  0
  1 16  1  0
  2  3  1  0
  2 12  1  0
  2 17  1  6
  3  4  1  0
  3 18  1  0
  3 19  1  0
  4  5  1  0
  4  8  2  0
  5  6  2  0
  5  7  1  0
  6  9  1  0
  6 10  1  0
  7 11  1  0
  8  9  1  0
  8 20  1  0
  9 21  1  0
 10 11  2  0
 10 22  1  0
 11 23  1  0
 12 13  2  0
 12 14  1  0
 14 24  1  0
M  END
