
     RDKit          3D

 47 46  0  0  0  0  0  0  0  0999 V2000
    5.9743    1.8556   -0.3253 C   0  0  0  0  0  0  0  0  0  0  0  0
    4.7661    1.1922    0.3418 C   0  0  1  0  0  0  0  0  0  0  0  0
    5.1141    0.8613    1.7941 C   0  0  0  0  0  0  0  0  0  0  0  0
    3.5981    2.1793    0.3156 C   0  0  0  0  0  0  0  0  0  0  0  0
    4.4201   -0.0833   -0.4719 C   0  0  1  0  0  0  0  0  0  0  0  0
    5.4834   -0.9979   -0.5092 O   0  0  0  0  0  0  0  0  0  0  0  0
    3.1807   -0.8093    0.0502 C   0  0  0  0  0  0  0  0  0  0  0  0
    3.2821   -1.6524    0.9346 O   0  0  0  0  0  0  0  0  0  0  0  0
    2.0118   -0.4846   -0.5088 N   0  0  0  0  0  0  0  0  0  0  0  0
    0.7579   -1.0737   -0.0838 C   0  0  0  0  0  0  0  0  0  0  0  0
   -0.3983   -0.4288   -0.8301 C   0  0  0  0  0  0  0  0  0  0  0  0
   -1.7228   -1.0575   -0.4476 C   0  0  0  0  0  0  0  0  0  0  0  0
   -1.8297   -2.2563   -0.2211 O   0  0  0  0  0  0  0  0  0  0  0  0
   -2.7644   -0.2184   -0.4018 N   0  0  0  0  0  0  0  0  0  0  0  0
   -4.1088   -0.6491   -0.0752 C   0  0  0  0  0  0  0  0  0  0  0  0
   -5.0988    0.4910   -0.2473 C   0  0  0  0  0  0  0  0  0  0  0  0
   -6.5116    0.0811    0.1462 C   0  0  0  0  0  0  0  0  0  0  0  0
   -7.5261    1.2054   -0.0208 C   0  0  0  0  0  0  0  0  0  0  0  0
   -8.9325    0.7944    0.3916 C   0  0  0  0  0  0  0  0  0  0  0  0
    5.7498    2.1452   -1.3547 H   0  0  0  0  0  0  0  0  0  0  0  0
    6.2522    2.7611    0.2175 H   0  0  0  0  0  0  0  0  0  0  0  0
    6.8435    1.1981   -0.3420 H   0  0  0  0  0  0  0  0  0  0  0  0
    5.9422    0.1543    1.8695 H   0  0  0  0  0  0  0  0  0  0  0  0
    5.4252    1.7703    2.3124 H   0  0  0  0  0  0  0  0  0  0  0  0
    4.2661    0.4506    2.3425 H   0  0  0  0  0  0  0  0  0  0  0  0
    2.7252    1.8140    0.8582 H   0  0  0  0  0  0  0  0  0  0  0  0
    3.8999    3.1170    0.7858 H   0  0  0  0  0  0  0  0  0  0  0  0
    3.2868    2.4154   -0.7048 H   0  0  0  0  0  0  0  0  0  0  0  0
    4.2411    0.2316   -1.5066 H   0  0  0  0  0  0  0  0  0  0  0  0
    5.4487   -1.5173    0.3037 H   0  0  0  0  0  0  0  0  0  0  0  0
    2.0013    0.1744   -1.2705 H   0  0  0  0  0  0  0  0  0  0  0  0
    0.7686   -2.1493   -0.2667 H   0  0  0  0  0  0  0  0  0  0  0  0
    0.6343   -0.9304    0.9921 H   0  0  0  0  0  0  0  0  0  0  0  0
   -0.4118    0.6487   -0.6496 H   0  0  0  0  0  0  0  0  0  0  0  0
   -0.2673   -0.5653   -1.9087 H   0  0  0  0  0  0  0  0  0  0  0  0
   -2.6042    0.7648   -0.5503 H   0  0  0  0  0  0  0  0  0  0  0  0
   -4.3928   -1.4861   -0.7181 H   0  0  0  0  0  0  0  0  0  0  0  0
   -4.1439   -1.0169    0.9550 H   0  0  0  0  0  0  0  0  0  0  0  0
   -4.7843    1.3439    0.3636 H   0  0  0  0  0  0  0  0  0  0  0  0
   -5.0889    0.8299   -1.2879 H   0  0  0  0  0  0  0  0  0  0  0  0
   -6.8241   -0.7806   -0.4536 H   0  0  0  0  0  0  0  0  0  0  0  0
   -6.5141   -0.2574    1.1877 H   0  0  0  0  0  0  0  0  0  0  0  0
   -7.2072    2.0706    0.5685 H   0  0  0  0  0  0  0  0  0  0  0  0
   -7.5316    1.5354   -1.0639 H   0  0  0  0  0  0  0  0  0  0  0  0
   -9.6438    1.6096    0.2559 H   0  0  0  0  0  0  0  0  0  0  0  0
   -9.2845   -0.0525   -0.2004 H   0  0  0  0  0  0  0  0  0  0  0  0
   -8.9660    0.4974    1.4415 H   0  0  0  0  0  0  0  0  0  0  0  0
 19 18  1  0
 18 17  1  0
 17 16  1  0
 16 15  1  0
 15 14  1  0
 14 12  1  0
 13 12  2  0
 12 11  1  0
 11 10  1  0
 10  9  1  0
  8  7  2  0
  9  7  1  0
  2  4  1  1
  7  5  1  0
  3  2  1  0
  2  5  1  0
  2  1  1  0
  5  6  1  0
  1 20  1  0
  1 21  1  0
  1 22  1  0
  3 23  1  0
  3 24  1  0
  3 25  1  0
  4 26  1  0
  4 27  1  0
  4 28  1  0
  5 29  1  6
  6 30  1  0
  9 31  1  0
 10 32  1  0
 10 33  1  0
 11 34  1  0
 11 35  1  0
 14 36  1  0
 15 37  1  0
 15 38  1  0
 16 39  1  0
 16 40  1  0
 17 41  1  0
 17 42  1  0
 18 43  1  0
 18 44  1  0
 19 45  1  0
 19 46  1  0
 19 47  1  0
M  END
