
     RDKit          3D

 35 36  0  0  0  0  0  0  0  0999 V2000
   -2.5785   -3.1478    0.4471 O   0  0  0  0  0  0  0  0  0  0  0  0
   -1.7215   -2.2029    0.1061 C   0  0  0  0  0  0  0  0  0  0  0  0
   -0.5680   -2.3900   -0.1693 O   0  0  0  0  0  0  0  0  0  0  0  0
   -2.3802   -0.8565    0.0910 C   0  0  0  0  0  0  0  0  0  0  0  0
   -3.7341   -0.8774   -0.1324 N   0  0  0  0  0  0  0  0  0  0  0  0
   -4.5152    0.2379   -0.2119 C   0  0  0  0  0  0  0  0  0  0  0  0
   -5.7082    0.2021   -0.4267 O   0  0  0  0  0  0  0  0  0  0  0  0
   -3.8215    1.4053   -0.0274 N   0  0  0  0  0  0  0  0  0  0  0  0
   -2.4713    1.5450    0.2120 C   0  0  0  0  0  0  0  0  0  0  0  0
   -1.9824    2.6493    0.3482 O   0  0  0  0  0  0  0  0  0  0  0  0
   -1.7042    0.2973    0.2812 C   0  0  0  0  0  0  0  0  0  0  0  0
   -0.2364    0.4354    0.5446 C   0  0  0  0  0  0  0  0  0  0  0  0
    0.5596    0.6986   -0.7430 C   0  0  0  0  0  0  0  0  0  0  0  0
    2.0245    0.8623   -0.4522 C   0  0  0  0  0  0  0  0  0  0  0  0
    2.8542   -0.2485   -0.4050 C   0  0  0  0  0  0  0  0  0  0  0  0
    2.5601    2.1224   -0.1828 C   0  0  0  0  0  0  0  0  0  0  0  0
    3.9046    2.2498    0.1212 C   0  0  0  0  0  0  0  0  0  0  0  0
    4.7415    1.1398    0.1646 C   0  0  0  0  0  0  0  0  0  0  0  0
    4.2109   -0.1203   -0.1009 C   0  0  0  0  0  0  0  0  0  0  0  0
    4.9260   -1.2630   -0.0902 O   0  0  0  0  0  0  0  0  0  0  0  0
    6.3093   -1.1899    0.1891 C   0  0  0  0  0  0  0  0  0  0  0  0
   -2.1585   -4.0217    0.4144 H   0  0  0  0  0  0  0  0  0  0  0  0
   -4.3647    2.2580   -0.0869 H   0  0  0  0  0  0  0  0  0  0  0  0
   -0.0878    1.2714    1.2303 H   0  0  0  0  0  0  0  0  0  0  0  0
    0.1584   -0.4482    1.0408 H   0  0  0  0  0  0  0  0  0  0  0  0
    0.4050   -0.1303   -1.4347 H   0  0  0  0  0  0  0  0  0  0  0  0
    0.1774    1.5984   -1.2292 H   0  0  0  0  0  0  0  0  0  0  0  0
    2.4522   -1.2345   -0.6124 H   0  0  0  0  0  0  0  0  0  0  0  0
    1.9236    2.9983   -0.2181 H   0  0  0  0  0  0  0  0  0  0  0  0
    4.3207    3.2279    0.3264 H   0  0  0  0  0  0  0  0  0  0  0  0
    5.7881    1.2773    0.3992 H   0  0  0  0  0  0  0  0  0  0  0  0
    6.5052   -0.7953    1.1895 H   0  0  0  0  0  0  0  0  0  0  0  0
    6.6905   -2.2066    0.1335 H   0  0  0  0  0  0  0  0  0  0  0  0
    6.8415   -0.5746   -0.5410 H   0  0  0  0  0  0  0  0  0  0  0  0
   -4.2030   -1.7601   -0.2810 H   0  0  0  0  0  0  0  0  0  0  0  0
 16 17  2  0
 16 14  1  0
 17 18  1  0
 13 14  1  0
 13 12  1  0
 14 15  2  0
 18 19  2  0
 15 19  1  0
 19 20  1  0
 20 21  1  0
 12 11  1  0
 10  9  2  0
 11  9  1  0
 11  4  2  0
  9  8  1  0
  4  2  1  0
  4  5  1  0
  8  6  1  0
  3  2  2  0
  2  1  1  0
  6  5  1  0
  6  7  2  0
  1 22  1  0
  8 23  1  0
 12 24  1  0
 12 25  1  0
 13 26  1  0
 13 27  1  0
 15 28  1  0
 16 29  1  0
 17 30  1  0
 18 31  1  0
 21 32  1  0
 21 33  1  0
 21 34  1  0
  5 35  1  0
M  END
