
     RDKit          3D

 56 55  0  0  0  0  0  0  0  0999 V2000
   -6.7594    1.4592    1.8151 N   0  0  0  0  0  0  0  0  0  0  0  0
   -7.2271    0.8308    0.6044 C   0  0  1  0  0  0  0  0  0  0  0  0
   -6.2639   -0.2308    0.0495 C   0  0  0  0  0  0  0  0  0  0  0  0
   -4.9244    0.3712   -0.3102 C   0  0  0  0  0  0  0  0  0  0  0  0
   -4.0628   -0.6817   -1.0145 C   0  0  0  0  0  0  0  0  0  0  0  0
   -2.7481   -0.2232   -1.3672 N   0  0  0  0  0  0  0  0  0  0  0  0
   -1.6053   -0.5375   -0.6519 C   0  0  0  0  0  0  0  0  0  0  0  0
   -1.6512   -1.2539    0.3680 O   0  0  0  0  0  0  0  0  0  0  0  0
   -0.3023    0.0385   -1.1763 C   0  0  0  0  0  0  0  0  0  0  0  0
    0.8662   -0.3941   -0.3180 C   0  0  0  0  0  0  0  0  0  0  0  0
    2.1655    0.1745   -0.8450 C   0  0  0  0  0  0  0  0  0  0  0  0
    3.3396   -0.2837   -0.0060 C   0  0  0  0  0  0  0  0  0  0  0  0
    4.6431    0.2820   -0.5287 C   0  0  0  0  0  0  0  0  0  0  0  0
    5.8203   -0.2076    0.2879 C   0  0  0  0  0  0  0  0  0  0  0  0
    7.1238    0.3638   -0.2283 C   0  0  0  0  0  0  0  0  0  0  0  0
    8.3028   -0.1483    0.5717 C   0  0  0  0  0  0  0  0  0  0  0  0
    9.6065    0.4264    0.0594 C   0  0  0  0  0  0  0  0  0  0  0  0
   10.7887   -0.1113    0.8374 C   0  0  0  0  0  0  0  0  0  0  0  0
   12.0878    0.4713    0.3435 C   0  0  0  0  0  0  0  0  0  0  0  0
   -8.6036    0.1848    0.7455 C   0  0  0  0  0  0  0  0  0  0  0  0
   -9.1593   -0.2227    1.7704 O   0  0  0  0  0  0  0  0  0  0  0  0
   -9.2875    0.0516   -0.4224 O   0  0  0  0  0  0  0  0  0  0  0  0
   -7.3994    2.1686    2.1171 H   0  0  0  0  0  0  0  0  0  0  0  0
   -6.6383    0.7892    2.5489 H   0  0  0  0  0  0  0  0  0  0  0  0
   -7.3446    1.6480   -0.1730 H   0  0  0  0  0  0  0  0  0  0  0  0
   -6.1234   -1.0521    0.7994 H   0  0  0  0  0  0  0  0  0  0  0  0
   -6.7407   -0.6797   -0.8628 H   0  0  0  0  0  0  0  0  0  0  0  0
   -5.0755    1.2574   -0.9799 H   0  0  0  0  0  0  0  0  0  0  0  0
   -4.4064    0.7352    0.6149 H   0  0  0  0  0  0  0  0  0  0  0  0
   -3.9757   -1.5914   -0.3519 H   0  0  0  0  0  0  0  0  0  0  0  0
   -4.5895   -0.9949   -1.9627 H   0  0  0  0  0  0  0  0  0  0  0  0
   -2.6682    0.3489   -2.1712 H   0  0  0  0  0  0  0  0  0  0  0  0
   -0.1471   -0.3068   -2.2325 H   0  0  0  0  0  0  0  0  0  0  0  0
   -0.3715    1.1583   -1.1881 H   0  0  0  0  0  0  0  0  0  0  0  0
    0.6977   -0.0568    0.7387 H   0  0  0  0  0  0  0  0  0  0  0  0
    0.9163   -1.5148   -0.2947 H   0  0  0  0  0  0  0  0  0  0  0  0
    2.3160   -0.1479   -1.9091 H   0  0  0  0  0  0  0  0  0  0  0  0
    2.1169    1.2955   -0.8426 H   0  0  0  0  0  0  0  0  0  0  0  0
    3.1890    0.0383    1.0582 H   0  0  0  0  0  0  0  0  0  0  0  0
    3.3876   -1.4047   -0.0079 H   0  0  0  0  0  0  0  0  0  0  0  0
    4.7797   -0.0162   -1.6016 H   0  0  0  0  0  0  0  0  0  0  0  0
    4.6057    1.4030   -0.4995 H   0  0  0  0  0  0  0  0  0  0  0  0
    5.6806    0.0850    1.3620 H   0  0  0  0  0  0  0  0  0  0  0  0
    5.8614   -1.3283    0.2539 H   0  0  0  0  0  0  0  0  0  0  0  0
    7.2541    0.0883   -1.3081 H   0  0  0  0  0  0  0  0  0  0  0  0
    7.0910    1.4840   -0.1748 H   0  0  0  0  0  0  0  0  0  0  0  0
    8.1706    0.1237    1.6522 H   0  0  0  0  0  0  0  0  0  0  0  0
    8.3375   -1.2683    0.5151 H   0  0  0  0  0  0  0  0  0  0  0  0
    9.7270    0.1757   -1.0275 H   0  0  0  0  0  0  0  0  0  0  0  0
    9.5820    1.5453    0.1395 H   0  0  0  0  0  0  0  0  0  0  0  0
   10.6585    0.1267    1.9261 H   0  0  0  0  0  0  0  0  0  0  0  0
   10.8182   -1.2292    0.7461 H   0  0  0  0  0  0  0  0  0  0  0  0
   12.2428    0.2307   -0.7362 H   0  0  0  0  0  0  0  0  0  0  0  0
   12.0904    1.5825    0.4579 H   0  0  0  0  0  0  0  0  0  0  0  0
   12.9460    0.0548    0.9246 H   0  0  0  0  0  0  0  0  0  0  0  0
  -10.1490   -0.3651   -0.2519 H   0  0  0  0  0  0  0  0  0  0  0  0
  2  1  1  0
  1 23  1  0
  1 24  1  0
 20  2  1  0
  2  3  1  0
  2 25  1  6
  3  4  1  0
  3 26  1  0
  3 27  1  0
  4  5  1  0
  4 28  1  0
  4 29  1  0
  5  6  1  0
  5 30  1  0
  5 31  1  0
  6  7  1  0
  6 32  1  0
  7  8  2  0
  7  9  1  0
  9 10  1  0
  9 33  1  0
  9 34  1  0
 10 11  1  0
 10 35  1  0
 10 36  1  0
 11 12  1  0
 11 37  1  0
 11 38  1  0
 12 13  1  0
 12 39  1  0
 12 40  1  0
 13 14  1  0
 13 41  1  0
 13 42  1  0
 14 15  1  0
 14 43  1  0
 14 44  1  0
 15 16  1  0
 15 45  1  0
 15 46  1  0
 16 17  1  0
 16 47  1  0
 16 48  1  0
 17 18  1  0
 17 49  1  0
 17 50  1  0
 18 19  1  0
 18 51  1  0
 18 52  1  0
 19 53  1  0
 19 54  1  0
 19 55  1  0
 21 20  2  0
 20 22  1  0
 22 56  1  0
M  END
