
     RDKit          3D

 64 68  0  0  0  0  0  0  0  0999 V2000
   19.4720   17.1713   82.0028 C   0  0  2  0  0  0  0  0  0  0  0  0
   20.5814   18.1122   81.5433 C   0  0  0  0  0  0  0  0  0  0  0  0
   21.9079   17.5248   81.9714 C   0  0  0  0  0  0  0  0  0  0  0  0
   21.7660   16.1859   82.2343 N   0  0  0  0  0  0  0  0  0  0  0  0
   20.2545   15.5407   81.8883 S   0  0  1  0  0  0  0  0  0  0  0  0
   19.8548   14.6410   82.9519 O   0  0  0  0  0  0  0  0  0  0  0  0
   20.2243   15.0478   80.5237 O   0  0  0  0  0  0  0  0  0  0  0  0
   22.9497   18.1240   82.0661 O   0  0  0  0  0  0  0  0  0  0  0  0
   18.1683   17.2072   81.2695 C   0  0  0  0  0  0  0  0  0  0  0  0
   18.1021   17.2940   79.8824 C   0  0  0  0  0  0  0  0  0  0  0  0
   16.8741   17.3262   79.2435 C   0  0  0  0  0  0  0  0  0  0  0  0
   15.6869   17.2712   79.9674 C   0  0  0  0  0  0  0  0  0  0  0  0
   15.7575   17.1717   81.3524 C   0  0  0  0  0  0  0  0  0  0  0  0
   16.9839   17.1377   81.9962 C   0  0  0  0  0  0  0  0  0  0  0  0
   14.3580   17.3842   79.2780 C   0  0  0  0  0  0  0  0  0  0  0  0
   16.3155   21.3387   78.5929 C   0  0  0  0  0  0  0  0  0  0  0  0
   16.1341   20.8308   77.3316 C   0  0  0  0  0  0  0  0  0  0  0  0
   15.5020   20.6779   79.4721 N   0  0  0  0  0  0  0  0  0  0  0  0
   14.8438   19.7967   78.7693 C   0  0  0  0  0  0  0  0  0  0  0  0
   15.2013   19.8497   77.4665 N   0  0  0  0  0  0  0  0  0  0  0  0
   18.9244   24.4668   79.8470 C   0  0  0  0  0  0  0  0  0  0  0  0
   18.4152   23.5624   80.7705 C   0  0  0  0  0  0  0  0  0  0  0  0
   17.5648   22.5459   80.3611 C   0  0  0  0  0  0  0  0  0  0  0  0
   17.2064   22.4148   79.0182 C   0  0  0  0  0  0  0  0  0  0  0  0
   17.7169   23.3340   78.0986 C   0  0  0  0  0  0  0  0  0  0  0  0
   18.5710   24.3465   78.5085 C   0  0  0  0  0  0  0  0  0  0  0  0
   13.8427   18.8318   79.3226 C   0  0  1  0  0  0  0  0  0  0  0  0
   12.5511   18.8642   78.6430 N   0  0  0  0  0  0  0  0  0  0  0  0
   11.6064   20.2058   78.6460 S   0  0  1  0  0  0  0  0  0  0  0  0
   10.3587   19.8150   78.0147 O   0  0  0  0  0  0  0  0  0  0  0  0
   11.6237   20.7325   79.9985 O   0  0  0  0  0  0  0  0  0  0  0  0
   12.9423   22.1236   75.3838 C   0  0  0  0  0  0  0  0  0  0  0  0
   13.6586   23.1906   75.9219 C   0  0  0  0  0  0  0  0  0  0  0  0
   12.2981   21.2239   76.2147 C   0  0  0  0  0  0  0  0  0  0  0  0
   12.3866   21.4026   77.5898 C   0  0  0  0  0  0  0  0  0  0  0  0
   13.0895   22.4604   78.1405 C   0  0  0  0  0  0  0  0  0  0  0  0
   13.7286   23.3548   77.2929 C   0  0  0  0  0  0  0  0  0  0  0  0
   12.2401   20.8757   73.5090 F   0  0  0  0  0  0  0  0  0  0  0  0
   14.1087   21.9342   73.3595 F   0  0  0  0  0  0  0  0  0  0  0  0
   12.2558   23.0200   73.3261 F   0  0  0  0  0  0  0  0  0  0  0  0
   19.3046   17.3126   83.0734 H   0  0  0  0  0  0  0  0  0  0  0  0
   20.5989   18.2302   80.4576 H   0  0  0  0  0  0  0  0  0  0  0  0
   20.4509   19.1020   81.9779 H   0  0  0  0  0  0  0  0  0  0  0  0
   22.5577   15.5859   82.4414 H   0  0  0  0  0  0  0  0  0  0  0  0
   19.0020   17.3433   79.2836 H   0  0  0  0  0  0  0  0  0  0  0  0
   17.0183   17.0668   83.0766 H   0  0  0  0  0  0  0  0  0  0  0  0
   16.8415   17.3965   78.1633 H   0  0  0  0  0  0  0  0  0  0  0  0
   14.8477   17.1233   81.9389 H   0  0  0  0  0  0  0  0  0  0  0  0
   14.4450   17.0575   78.2380 H   0  0  0  0  0  0  0  0  0  0  0  0
   13.6174   16.7419   79.7580 H   0  0  0  0  0  0  0  0  0  0  0  0
   13.6866   19.1103   80.3658 H   0  0  0  0  0  0  0  0  0  0  0  0
   16.5756   21.0730   76.3797 H   0  0  0  0  0  0  0  0  0  0  0  0
   14.8475   19.2767   76.7165 H   0  0  0  0  0  0  0  0  0  0  0  0
   19.5870   25.2605   80.1670 H   0  0  0  0  0  0  0  0  0  0  0  0
   18.6847   23.6462   81.8157 H   0  0  0  0  0  0  0  0  0  0  0  0
   18.9545   25.0503   77.7809 H   0  0  0  0  0  0  0  0  0  0  0  0
   17.1782   21.8401   81.0847 H   0  0  0  0  0  0  0  0  0  0  0  0
   17.4347   23.2680   77.0546 H   0  0  0  0  0  0  0  0  0  0  0  0
   12.4544   18.2875   77.8151 H   0  0  0  0  0  0  0  0  0  0  0  0
   14.1672   23.8967   75.2781 H   0  0  0  0  0  0  0  0  0  0  0  0
   11.7365   20.3948   75.8054 H   0  0  0  0  0  0  0  0  0  0  0  0
   14.2843   24.1828   77.7097 H   0  0  0  0  0  0  0  0  0  0  0  0
   13.1491   22.5937   79.2110 H   0  0  0  0  0  0  0  0  0  0  0  0
   12.8816   21.9808   73.8942 C   0  0  2  0  0  0  0  0  0  0  0  0
  1  2  1  0
  1  5  1  0
  1  9  1  0
  2  3  1  0
  3  4  1  0
  3  8  2  0
  5  4  1  1
  5  6  2  0
  5  7  2  0
  9 10  2  0
  9 14  1  0
 10 11  1  0
 11 12  2  0
 12 13  1  0
 12 15  1  0
 13 14  2  0
 15 27  1  0
 16 17  2  0
 16 18  1  0
 16 24  1  0
 17 20  1  0
 18 19  2  0
 19 20  1  0
 19 27  1  0
 21 22  2  0
 21 26  1  0
 22 23  1  0
 23 24  2  0
 24 25  1  0
 25 26  2  0
 27 28  1  0
 29 28  1  1
 29 30  2  0
 29 31  2  0
 29 35  1  0
 64 32  1  0
 64 38  1  1
 64 39  1  0
 64 40  1  0
 32 33  2  0
 32 34  1  0
 33 37  1  0
 34 35  2  0
 35 36  1  0
 36 37  2  0
  1 41  1  1
  2 42  1  0
  2 43  1  0
  4 44  1  0
 10 45  1  0
 14 46  1  0
 11 47  1  0
 13 48  1  0
 15 49  1  0
 15 50  1  0
 27 51  1  1
 17 52  1  0
 20 53  1  0
 21 54  1  0
 22 55  1  0
 26 56  1  0
 23 57  1  0
 25 58  1  0
 28 59  1  0
 33 60  1  0
 34 61  1  0
 37 62  1  0
 36 63  1  0
M  END
