
     RDKit          3D

 39 38  0  0  0  0  0  0  0  0999 V2000
    0.1275   -0.8014    2.1093 N   0  0  0  0  0  0  0  0  0  0  0  0
    0.6646    0.1459    3.0487 C   0  0  1  0  0  0  0  0  0  0  0  0
   -0.2782    0.4291    4.2317 C   0  0  0  0  0  0  0  0  0  0  0  0
   -1.3051    1.4929    3.8924 C   0  0  0  0  0  0  0  0  0  0  0  0
   -1.2411    2.6291    4.4046 O   0  0  0  0  0  0  0  0  0  0  0  0
   -2.3090    1.1878    3.0115 N   0  0  0  0  0  0  0  0  0  0  0  0
    1.9950   -0.2893    3.6614 C   0  0  0  0  0  0  0  0  0  0  0  0
    3.0354    0.3636    3.7428 O   0  0  0  0  0  0  0  0  0  0  0  0
    2.0152   -1.5522    4.1737 O   0  0  0  0  0  0  0  0  0  0  0  0
    0.6193   -0.9492    0.8078 C   0  0  0  0  0  0  0  0  0  0  0  0
    1.5681   -0.2428    0.4158 O   0  0  0  0  0  0  0  0  0  0  0  0
   -0.0517   -1.9741   -0.0254 C   0  0  0  0  0  0  0  0  0  0  0  0
   -0.3615   -1.8343   -1.3257 C   0  0  0  0  0  0  0  0  0  0  0  0
   -0.3066   -0.6157   -2.1014 C   0  0  0  0  0  0  0  0  0  0  0  0
   -0.6543   -0.5804   -3.3972 C   0  0  0  0  0  0  0  0  0  0  0  0
   -0.6361    0.6617   -4.2038 C   0  0  0  0  0  0  0  0  0  0  0  0
   -0.3413    0.4023   -5.6768 C   0  0  1  0  0  0  0  0  0  0  0  0
   -0.7487    1.6051   -6.5029 C   0  0  0  0  0  0  0  0  0  0  0  0
    1.1237    0.0860   -5.8930 C   0  0  0  0  0  0  0  0  0  0  0  0
   -0.6297   -1.3687    2.4171 H   0  0  0  0  0  0  0  0  0  0  0  0
    0.8701    1.1237    2.5039 H   0  0  0  0  0  0  0  0  0  0  0  0
   -0.7862   -0.5096    4.5712 H   0  0  0  0  0  0  0  0  0  0  0  0
    0.3396    0.8222    5.0846 H   0  0  0  0  0  0  0  0  0  0  0  0
   -2.9826    1.8773    2.7855 H   0  0  0  0  0  0  0  0  0  0  0  0
   -2.3794    0.2970    2.5948 H   0  0  0  0  0  0  0  0  0  0  0  0
    2.8949   -1.7434    4.5401 H   0  0  0  0  0  0  0  0  0  0  0  0
   -0.2451   -2.9386    0.4736 H   0  0  0  0  0  0  0  0  0  0  0  0
   -0.6681   -2.7403   -1.8849 H   0  0  0  0  0  0  0  0  0  0  0  0
   -0.1374    0.3202   -1.5369 H   0  0  0  0  0  0  0  0  0  0  0  0
   -1.0116   -1.4840   -3.9194 H   0  0  0  0  0  0  0  0  0  0  0  0
    0.1197    1.3856   -3.7964 H   0  0  0  0  0  0  0  0  0  0  0  0
   -1.6453    1.1533   -4.1162 H   0  0  0  0  0  0  0  0  0  0  0  0
   -0.9516   -0.4837   -6.0126 H   0  0  0  0  0  0  0  0  0  0  0  0
   -0.5413    1.4182   -7.5844 H   0  0  0  0  0  0  0  0  0  0  0  0
   -1.8384    1.8126   -6.3807 H   0  0  0  0  0  0  0  0  0  0  0  0
   -0.1779    2.5111   -6.1849 H   0  0  0  0  0  0  0  0  0  0  0  0
    1.7652    0.9207   -5.5196 H   0  0  0  0  0  0  0  0  0  0  0  0
    1.4048   -0.8476   -5.3481 H   0  0  0  0  0  0  0  0  0  0  0  0
    1.3310   -0.0589   -6.9800 H   0  0  0  0  0  0  0  0  0  0  0  0
  1  2  1  0
  1 10  1  0
  1 20  1  0
  2  3  1  0
  2  7  1  0
  2 21  1  6
  3  4  1  0
  3 22  1  0
  3 23  1  0
  4  5  2  0
  4  6  1  0
  6 24  1  0
  6 25  1  0
  7  8  2  0
  7  9  1  0
  9 26  1  0
 10 11  2  0
 10 12  1  0
 12 13  2  0
 12 27  1  0
 13 14  1  0
 13 28  1  0
 14 15  2  0
 14 29  1  0
 15 16  1  0
 15 30  1  0
 16 17  1  0
 16 31  1  0
 16 32  1  0
 17 18  1  0
 17 19  1  0
 17 33  1  6
 18 34  1  0
 18 35  1  0
 18 36  1  0
 19 37  1  0
 19 38  1  0
 19 39  1  0
M  END
