
     RDKit          3D

 22 24  0  0  0  0  0  0  0  0999 V2000
    1.1231   -0.8590   -0.0083 C   0  0  0  0  0  0  0  0  0  0  0  0
    2.4660   -1.2268   -0.0083 C   0  0  0  0  0  0  0  0  0  0  0  0
    3.4074   -0.2121   -0.0197 C   0  0  0  0  0  0  0  0  0  0  0  0
    3.0305    1.1373   -0.0296 C   0  0  0  0  0  0  0  0  0  0  0  0
    1.6939    1.4968   -0.0294 C   0  0  0  0  0  0  0  0  0  0  0  0
    0.7263    0.4942   -0.0194 C   0  0  0  0  0  0  0  0  0  0  0  0
   -0.7146    0.4971   -0.0149 C   0  0  0  0  0  0  0  0  0  0  0  0
   -1.6791    1.5029   -0.0217 C   0  0  0  0  0  0  0  0  0  0  0  0
   -3.0168    1.1480   -0.0144 C   0  0  0  0  0  0  0  0  0  0  0  0
   -3.3984   -0.1999    0.0009 C   0  0  0  0  0  0  0  0  0  0  0  0
   -2.4605   -1.2179    0.0072 C   0  0  0  0  0  0  0  0  0  0  0  0
   -1.1164   -0.8548   -0.0008 C   0  0  0  0  0  0  0  0  0  0  0  0
    0.0017   -1.6471    0.0028 N   0  0  0  0  0  0  0  0  0  0  0  0
    2.7643   -2.2674    0.0000 H   0  0  0  0  0  0  0  0  0  0  0  0
    4.4593   -0.4676   -0.0203 H   0  0  0  0  0  0  0  0  0  0  0  0
    3.7945    1.9031   -0.0376 H   0  0  0  0  0  0  0  0  0  0  0  0
    1.4063    2.5412   -0.0377 H   0  0  0  0  0  0  0  0  0  0  0  0
   -1.3879    2.5464   -0.0332 H   0  0  0  0  0  0  0  0  0  0  0  0
   -3.7782    1.9164   -0.0192 H   0  0  0  0  0  0  0  0  0  0  0  0
   -4.4511   -0.4516    0.0061 H   0  0  0  0  0  0  0  0  0  0  0  0
   -2.7623   -2.2574    0.0200 H   0  0  0  0  0  0  0  0  0  0  0  0
   -0.0010   -2.6532    0.0107 H   0  0  0  0  0  0  0  0  0  0  0  0
  1  2  2  0
  1  6  1  0
  1 13  1  0
  2  3  1  0
  2 14  1  0
  3  4  2  0
  3 15  1  0
  4  5  1  0
  4 16  1  0
  5  6  2  0
  5 17  1  0
  6  7  1  0
  7  8  2  0
  7 12  1  0
  8  9  1  0
  8 18  1  0
  9 10  2  0
  9 19  1  0
 10 11  1  0
 10 20  1  0
 11 12  2  0
 11 21  1  0
 12 13  1  0
 13 22  1  0
M  END
