
     RDKit          3D

 18 18  0  0  0  0  0  0  0  0999 V2000
   -3.0258    0.3412    0.0082 C   0  0  0  0  0  0  0  0  0  0  0  0
   -1.9541   -0.7452    0.0085 C   0  0  0  0  0  0  0  0  0  0  0  0
    0.6172   -1.1612    0.0068 N   0  0  0  0  0  0  0  0  0  0  0  0
    1.9256   -0.8207    0.0066 C   0  0  0  0  0  0  0  0  0  0  0  0
    2.3167    0.4844    0.0070 C   0  0  0  0  0  0  0  0  0  0  0  0
    1.3391    1.5110    0.0075 C   0  0  0  0  0  0  0  0  0  0  0  0
   -0.0024    1.2330    0.0081 C   0  0  0  0  0  0  0  0  0  0  0  0
   -0.4618   -0.2126    0.0079 B   0  0  0  0  0  0  0  0  0  0  0  0
   -2.9420    0.9852   -0.8691 H   0  0  0  0  0  0  0  0  0  0  0  0
   -4.0335   -0.0779    0.0068 H   0  0  0  0  0  0  0  0  0  0  0  0
   -2.9435    0.9841    0.8862 H   0  0  0  0  0  0  0  0  0  0  0  0
   -2.0998   -1.4005    0.8758 H   0  0  0  0  0  0  0  0  0  0  0  0
   -2.1018   -1.4032   -0.8565 H   0  0  0  0  0  0  0  0  0  0  0  0
    3.3712    0.7215    0.0065 H   0  0  0  0  0  0  0  0  0  0  0  0
    1.6894    2.5393    0.0074 H   0  0  0  0  0  0  0  0  0  0  0  0
   -0.6914    2.0717    0.0081 H   0  0  0  0  0  0  0  0  0  0  0  0
    0.4319   -2.1544    0.0076 H   0  0  0  0  0  0  0  0  0  0  0  0
    2.6432   -1.6303    0.0061 H   0  0  0  0  0  0  0  0  0  0  0  0
  1  2  1  0
  2  8  1  0
  3  8  1  0
  3  4  1  0
  8  7  1  0
  4  5  2  0
  7  6  2  0
  5  6  1  0
  1  9  1  0
  1 10  1  0
  1 11  1  0
  2 12  1  0
  2 13  1  0
  4 18  1  0
  5 14  1  0
  6 15  1  0
  7 16  1  0
  3 17  1  0
M  END
