
     RDKit          3D

 50 53  0  0  0  0  0  0  0  0999 V2000
    5.3978    4.5294   -0.0142 O   0  0  0  0  0  0  0  0  0  0  0  0
    4.5479    3.4904    0.0896 C   0  0  0  0  0  0  0  0  0  0  0  0
    3.6832    3.3269    1.1688 C   0  0  0  0  0  0  0  0  0  0  0  0
    2.8373    2.2308    1.2203 C   0  0  0  0  0  0  0  0  0  0  0  0
    4.5525    2.5394   -0.9295 C   0  0  0  0  0  0  0  0  0  0  0  0
    3.7057    1.4483   -0.8614 C   0  0  0  0  0  0  0  0  0  0  0  0
    2.8197    1.2721    0.2059 C   0  0  0  0  0  0  0  0  0  0  0  0
    1.9034    0.1141    0.2476 C   0  0  0  0  0  0  0  0  0  0  0  0
    2.4077   -1.1479   -0.3376 C   0  0  0  0  0  0  0  0  0  0  0  0
    1.7052   -1.8084   -1.3419 C   0  0  0  0  0  0  0  0  0  0  0  0
    2.1763   -2.9885   -1.8940 C   0  0  0  0  0  0  0  0  0  0  0  0
    3.3733   -3.5388   -1.4421 C   0  0  0  0  0  0  0  0  0  0  0  0
    3.8792   -4.6861   -1.9347 O   0  0  0  0  0  0  0  0  0  0  0  0
    4.0946   -2.8845   -0.4449 C   0  0  0  0  0  0  0  0  0  0  0  0
    3.6161   -1.7000    0.0873 C   0  0  0  0  0  0  0  0  0  0  0  0
    0.6665    0.2450    0.7622 C   0  0  0  0  0  0  0  0  0  0  0  0
   -0.3389   -0.7967    1.0006 C   0  0  0  0  0  0  0  0  0  0  0  0
   -0.0144   -2.1027    1.3772 C   0  0  0  0  0  0  0  0  0  0  0  0
   -1.0279   -3.0111    1.6369 C   0  0  0  0  0  0  0  0  0  0  0  0
   -2.3611   -2.6559    1.5106 C   0  0  0  0  0  0  0  0  0  0  0  0
   -2.7071   -1.3507    1.1452 C   0  0  0  0  0  0  0  0  0  0  0  0
   -4.0494   -1.0195    1.0753 N   0  0  0  0  0  0  0  0  0  0  0  0
   -4.6340    0.0709    0.4473 C   0  0  0  0  0  0  0  0  0  0  0  0
   -4.1222    0.6287   -0.7277 C   0  0  0  0  0  0  0  0  0  0  0  0
   -4.7554    1.7007   -1.3380 C   0  0  0  0  0  0  0  0  0  0  0  0
   -5.9190    2.2007   -0.7886 C   0  0  0  0  0  0  0  0  0  0  0  0
   -6.5357    3.2389   -1.3847 F   0  0  0  0  0  0  0  0  0  0  0  0
   -6.4663    1.6562    0.3561 C   0  0  0  0  0  0  0  0  0  0  0  0
   -5.8155    0.6005    0.9744 C   0  0  0  0  0  0  0  0  0  0  0  0
   -1.6835   -0.4297    0.9149 C   0  0  0  0  0  0  0  0  0  0  0  0
    5.3204    5.1073    0.7532 H   0  0  0  0  0  0  0  0  0  0  0  0
    3.6777    4.0461    1.9801 H   0  0  0  0  0  0  0  0  0  0  0  0
    2.1946    2.1127    2.0838 H   0  0  0  0  0  0  0  0  0  0  0  0
    5.2226    2.6581   -1.7720 H   0  0  0  0  0  0  0  0  0  0  0  0
    3.7289    0.7252   -1.6667 H   0  0  0  0  0  0  0  0  0  0  0  0
    0.7727   -1.3934   -1.7030 H   0  0  0  0  0  0  0  0  0  0  0  0
    1.6110   -3.4780   -2.6789 H   0  0  0  0  0  0  0  0  0  0  0  0
    3.2979   -5.0473   -2.6133 H   0  0  0  0  0  0  0  0  0  0  0  0
    5.0289   -3.3048   -0.0937 H   0  0  0  0  0  0  0  0  0  0  0  0
    4.1915   -1.2025    0.8588 H   0  0  0  0  0  0  0  0  0  0  0  0
    0.3443    1.2461    1.0330 H   0  0  0  0  0  0  0  0  0  0  0  0
    1.0180   -2.4033    1.4858 H   0  0  0  0  0  0  0  0  0  0  0  0
   -0.7766   -4.0193    1.9409 H   0  0  0  0  0  0  0  0  0  0  0  0
   -3.1393   -3.3850    1.7032 H   0  0  0  0  0  0  0  0  0  0  0  0
   -4.6686   -1.5920    1.6256 H   0  0  0  0  0  0  0  0  0  0  0  0
   -3.2327    0.2218   -1.1889 H   0  0  0  0  0  0  0  0  0  0  0  0
   -4.3495    2.1275   -2.2458 H   0  0  0  0  0  0  0  0  0  0  0  0
   -7.3816    2.0554    0.7733 H   0  0  0  0  0  0  0  0  0  0  0  0
   -6.2319    0.1808    1.8820 H   0  0  0  0  0  0  0  0  0  0  0  0
   -1.9230    0.5981    0.6733 H   0  0  0  0  0  0  0  0  0  0  0  0
  1  2  1  0
  2  5  2  0
  2  3  1  0
  5  6  1  0
  3  4  2  0
  6  7  2  0
  4  7  1  0
  7  8  1  0
 27 26  1  0
  8  9  1  0
  8 16  2  0
  9 10  2  0
  9 15  1  0
 10 11  1  0
 15 14  2  0
 11 12  2  0
 14 12  1  0
 12 13  1  0
 16 17  1  0
 26 25  1  0
 26 28  2  0
 25 24  2  0
 28 29  1  0
 17 30  1  0
 17 18  2  0
 24 23  1  0
 30 21  2  0
 29 23  2  0
 23 22  1  0
 18 19  1  0
 21 22  1  0
 21 20  1  0
 19 20  2  0
  1 31  1  0
  3 32  1  0
  4 33  1  0
  5 34  1  0
  6 35  1  0
 10 36  1  0
 11 37  1  0
 13 38  1  0
 14 39  1  0
 15 40  1  0
 16 41  1  0
 18 42  1  0
 19 43  1  0
 20 44  1  0
 22 45  1  0
 24 46  1  0
 25 47  1  0
 28 48  1  0
 29 49  1  0
 30 50  1  0
M  END
