
     RDKit          3D

 32 31  0  0  0  0  0  0  0  0999 V2000
    2.1271   -0.1375    0.1767 C   0  0  1  0  0  0  0  0  0  0  0  0
    3.6031    0.2003   -0.0211 C   0  0  0  0  0  0  0  0  0  0  0  0
    1.7618   -0.2836    1.5661 N   0  0  0  0  0  0  0  0  0  0  0  0
    1.3016    0.9302   -0.5571 C   0  0  0  0  0  0  0  0  0  0  0  0
   -0.0018    0.3797   -1.1132 C   0  0  0  0  0  0  0  0  0  0  0  0
   -0.1510    0.2915   -2.3503 O   0  0  0  0  0  0  0  0  0  0  0  0
   -0.9780   -0.0064   -0.2237 N   0  0  0  0  0  0  0  0  0  0  0  0
   -2.2498   -0.5411   -0.6278 C   0  0  0  0  0  0  0  0  0  0  0  0
   -3.4712   -0.0203    0.1661 C   0  0  1  0  0  0  0  0  0  0  0  0
   -3.5166   -0.6280    1.5579 C   0  0  0  0  0  0  0  0  0  0  0  0
   -3.4377    1.4953    0.2648 C   0  0  0  0  0  0  0  0  0  0  0  0
   -4.7157   -0.4438   -0.6032 C   0  0  0  0  0  0  0  0  0  0  0  0
    4.3531    0.8166    0.7425 O   0  0  0  0  0  0  0  0  0  0  0  0
    1.9550   -1.1333   -0.3378 H   0  0  0  0  0  0  0  0  0  0  0  0
    2.1166   -1.1431    1.9368 H   0  0  0  0  0  0  0  0  0  0  0  0
    1.0805    1.8021    0.1118 H   0  0  0  0  0  0  0  0  0  0  0  0
    1.9003    1.3024   -1.4338 H   0  0  0  0  0  0  0  0  0  0  0  0
   -0.8139    0.0818    0.7505 H   0  0  0  0  0  0  0  0  0  0  0  0
   -2.4206   -0.3158   -1.7194 H   0  0  0  0  0  0  0  0  0  0  0  0
   -2.2164   -1.6638   -0.5049 H   0  0  0  0  0  0  0  0  0  0  0  0
   -2.7098   -0.2084    2.2049 H   0  0  0  0  0  0  0  0  0  0  0  0
   -4.4980   -0.4033    2.0416 H   0  0  0  0  0  0  0  0  0  0  0  0
   -3.3932   -1.7358    1.5035 H   0  0  0  0  0  0  0  0  0  0  0  0
   -3.3252    1.9475   -0.7504 H   0  0  0  0  0  0  0  0  0  0  0  0
   -4.3867    1.8701    0.7194 H   0  0  0  0  0  0  0  0  0  0  0  0
   -2.5859    1.8330    0.9018 H   0  0  0  0  0  0  0  0  0  0  0  0
   -4.7654   -1.5559   -0.6818 H   0  0  0  0  0  0  0  0  0  0  0  0
   -5.6316   -0.0833   -0.0774 H   0  0  0  0  0  0  0  0  0  0  0  0
   -4.7031   -0.0115   -1.6319 H   0  0  0  0  0  0  0  0  0  0  0  0
    4.1306   -0.2441   -1.1909 O   0  0  0  0  0  0  0  0  0  0  0  0
    5.0680    0.0072   -1.2453 H   0  0  0  0  0  0  0  0  0  0  0  0
    2.1097    0.4802    2.1135 H   0  0  0  0  0  0  0  0  0  0  0  0
  2  1  1  0
  4  1  1  0
  1  3  1  0
  1 14  1  6
 13  2  2  0
  3 15  1  0
  4  5  1  0
  4 16  1  0
  4 17  1  0
  7  5  1  0
  5  6  2  0
  7  8  1  0
  7 18  1  0
  9  8  1  6
  8 19  1  0
  8 20  1  0
 10  9  1  0
 12  9  1  0
  9 11  1  0
 10 21  1  0
 10 22  1  0
 10 23  1  0
 11 24  1  0
 11 25  1  0
 11 26  1  0
 12 27  1  0
 12 28  1  0
 12 29  1  0
  2 30  1  0
 30 31  1  0
  3 32  1  0
M  END
