
     RDKit          3D

 47 49  0  0  0  0  0  0  0  0999 V2000
   -1.3842   -0.9362    3.1424 C   0  0  0  0  0  0  0  0  0  0  0  0
   -1.1288   -0.6602    4.4721 C   0  0  0  0  0  0  0  0  0  0  0  0
   -0.0645    0.1725    4.7966 C   0  0  0  0  0  0  0  0  0  0  0  0
    0.7374    0.7317    3.8166 C   0  0  0  0  0  0  0  0  0  0  0  0
    0.4617    0.4590    2.4841 C   0  0  0  0  0  0  0  0  0  0  0  0
   -0.6022   -0.3663    2.1388 C   0  0  0  0  0  0  0  0  0  0  0  0
   -0.9167   -0.7144    0.7145 C   0  0  0  0  0  0  0  0  0  0  0  0
   -1.3906   -1.8066    0.4363 O   0  0  0  0  0  0  0  0  0  0  0  0
   -0.6542    0.2429   -0.1870 N   0  0  0  0  0  0  0  0  0  0  0  0
   -0.8311    0.0877   -1.6136 C   0  0  0  0  0  0  0  0  0  0  0  0
    0.4923   -0.0632   -2.3771 C   0  0  1  0  0  0  0  0  0  0  0  0
    1.2998   -1.2760   -1.9081 C   0  0  0  0  0  0  0  0  0  0  0  0
    2.6265   -1.4251   -2.6373 C   0  0  0  0  0  0  0  0  0  0  0  0
    0.2523    0.5311    6.5039 S   0  0  1  0  0  0  0  0  0  0  0  0
    0.8340   -0.9210    7.0275 N   0  0  0  0  0  0  0  0  0  0  0  0
    1.2463    1.5938    6.5538 O   0  0  0  0  0  0  0  0  0  0  0  0
   -1.0120    0.7289    7.1965 O   0  0  0  0  0  0  0  0  0  0  0  0
    0.6247    1.8226   -7.1274 C   0  0  0  0  0  0  0  0  0  0  0  0
    0.1100    1.2384   -8.2495 C   0  0  0  0  0  0  0  0  0  0  0  0
    0.3500    0.9350   -6.0409 C   0  0  0  0  0  0  0  0  0  0  0  0
   -0.4669    0.0442   -7.9255 N   0  0  0  0  0  0  0  0  0  0  0  0
   -0.3375   -0.1714   -6.5838 C   0  0  0  0  0  0  0  0  0  0  0  0
    0.6186    0.9598   -4.6662 C   0  0  0  0  0  0  0  0  0  0  0  0
   -0.7580   -1.2356   -5.7875 C   0  0  0  0  0  0  0  0  0  0  0  0
    0.2113   -0.0879   -3.8617 C   0  0  0  0  0  0  0  0  0  0  0  0
   -0.4783   -1.1760   -4.4374 C   0  0  0  0  0  0  0  0  0  0  0  0
   -2.2063   -1.5893    2.8832 H   0  0  0  0  0  0  0  0  0  0  0  0
   -1.7518   -1.0972    5.2411 H   0  0  0  0  0  0  0  0  0  0  0  0
    1.5730    1.3680    4.0717 H   0  0  0  0  0  0  0  0  0  0  0  0
    1.1079    0.8841    1.7270 H   0  0  0  0  0  0  0  0  0  0  0  0
   -0.3457    1.1456    0.1358 H   0  0  0  0  0  0  0  0  0  0  0  0
   -1.3616    0.9642   -1.9890 H   0  0  0  0  0  0  0  0  0  0  0  0
   -1.4720   -0.7761   -1.7859 H   0  0  0  0  0  0  0  0  0  0  0  0
    1.0918    0.8321   -2.1735 H   0  0  0  0  0  0  0  0  0  0  0  0
    0.7041   -2.1865   -2.0234 H   0  0  0  0  0  0  0  0  0  0  0  0
    1.4934   -1.1756   -0.8372 H   0  0  0  0  0  0  0  0  0  0  0  0
    3.2079   -2.2510   -2.2260 H   0  0  0  0  0  0  0  0  0  0  0  0
    2.4835   -1.6176   -3.7010 H   0  0  0  0  0  0  0  0  0  0  0  0
    3.2296   -0.5192   -2.5462 H   0  0  0  0  0  0  0  0  0  0  0  0
    1.7949   -1.0864    6.7463 H   0  0  0  0  0  0  0  0  0  0  0  0
    0.7367   -1.0216    8.0334 H   0  0  0  0  0  0  0  0  0  0  0  0
    0.1110    1.5854   -9.2703 H   0  0  0  0  0  0  0  0  0  0  0  0
   -0.9084   -0.5790   -8.5804 H   0  0  0  0  0  0  0  0  0  0  0  0
    1.1456    1.8014   -4.2300 H   0  0  0  0  0  0  0  0  0  0  0  0
   -1.2833   -2.0829   -6.2100 H   0  0  0  0  0  0  0  0  0  0  0  0
   -0.7994   -1.9998   -3.8103 H   0  0  0  0  0  0  0  0  0  0  0  0
    1.1386    2.7698   -7.0839 H   0  0  0  0  0  0  0  0  0  0  0  0
  1  2  2  0
  1  6  1  0
  1 27  1  0
  2  3  1  0
  2 28  1  0
  3  4  2  0
  3 14  1  0
  4  5  1  0
  4 29  1  0
  5  6  2  0
  5 30  1  0
  6  7  1  0
  7  8  2  0
  7  9  1  0
  9 10  1  0
  9 31  1  0
 10 11  1  0
 10 32  1  0
 10 33  1  0
 11 12  1  0
 11 25  1  0
 11 34  1  6
 12 13  1  0
 12 35  1  0
 12 36  1  0
 13 37  1  0
 13 38  1  0
 13 39  1  0
 14 15  1  1
 14 16  2  0
 14 17  2  0
 15 40  1  0
 15 41  1  0
 18 19  2  0
 18 20  1  0
 18 47  1  0
 19 21  1  0
 19 42  1  0
 20 22  2  0
 20 23  1  0
 21 22  1  0
 21 43  1  0
 22 24  1  0
 23 25  2  0
 23 44  1  0
 24 26  2  0
 24 45  1  0
 25 26  1  0
 26 46  1  0
M  END
