
     RDKit          3D

 35 36  0  0  0  0  0  0  0  0999 V2000
   -2.4847   -0.3494    1.3428 C   0  0  0  0  0  0  0  0  0  0  0  0
   -3.7042   -0.9336    1.0226 C   0  0  0  0  0  0  0  0  0  0  0  0
   -1.9691    0.7087    0.5998 C   0  0  0  0  0  0  0  0  0  0  0  0
   -4.4069   -0.4414   -0.0585 C   0  0  0  0  0  0  0  0  0  0  0  0
   -2.7126    1.1734   -0.4845 C   0  0  0  0  0  0  0  0  0  0  0  0
   -3.9326    0.6076   -0.8231 C   0  0  0  0  0  0  0  0  0  0  0  0
   -0.6370    1.3263    0.9225 C   0  0  0  0  0  0  0  0  0  0  0  0
    0.4779    0.8833   -0.0304 C   0  0  2  0  0  0  0  0  0  0  0  0
    0.7897   -0.6060    0.0930 C   0  0  0  0  0  0  0  0  0  0  0  0
    1.7498    1.6965    0.1977 C   0  0  0  0  0  0  0  0  0  0  0  0
    1.9477   -1.0088   -0.8111 C   0  0  0  0  0  0  0  0  0  0  0  0
    2.8777    1.2299   -0.7141 C   0  0  0  0  0  0  0  0  0  0  0  0
    3.1194   -0.1914   -0.5463 N   0  0  0  0  0  0  0  0  0  0  0  0
    4.2634   -0.7355   -0.0795 C   0  0  0  0  0  0  0  0  0  0  0  0
    4.3874   -1.9425    0.1006 O   0  0  0  0  0  0  0  0  0  0  0  0
    5.4139    0.2032    0.2070 C   0  0  0  0  0  0  0  0  0  0  0  0
   -5.5904   -0.9964   -0.3766 F   0  0  0  0  0  0  0  0  0  0  0  0
   -1.9285   -0.7289    2.1913 H   0  0  0  0  0  0  0  0  0  0  0  0
   -4.0992   -1.7549    1.6069 H   0  0  0  0  0  0  0  0  0  0  0  0
   -2.3340    1.9980   -1.0772 H   0  0  0  0  0  0  0  0  0  0  0  0
   -4.5049    0.9799   -1.6628 H   0  0  0  0  0  0  0  0  0  0  0  0
   -0.7234    2.4161    0.8778 H   0  0  0  0  0  0  0  0  0  0  0  0
   -0.3511    1.0803    1.9497 H   0  0  0  0  0  0  0  0  0  0  0  0
    0.1422    1.0748   -1.0592 H   0  0  0  0  0  0  0  0  0  0  0  0
    1.0436   -0.8416    1.1324 H   0  0  0  0  0  0  0  0  0  0  0  0
   -0.0859   -1.2066   -0.1648 H   0  0  0  0  0  0  0  0  0  0  0  0
    1.5595    2.7565    0.0109 H   0  0  0  0  0  0  0  0  0  0  0  0
    2.0697    1.6054    1.2415 H   0  0  0  0  0  0  0  0  0  0  0  0
    2.2013   -2.0562   -0.6743 H   0  0  0  0  0  0  0  0  0  0  0  0
    1.6601   -0.8746   -1.8602 H   0  0  0  0  0  0  0  0  0  0  0  0
    2.6042    1.4152   -1.7587 H   0  0  0  0  0  0  0  0  0  0  0  0
    3.7809    1.8005   -0.5192 H   0  0  0  0  0  0  0  0  0  0  0  0
    5.1621    0.9387    0.9720 H   0  0  0  0  0  0  0  0  0  0  0  0
    6.2623   -0.3773    0.5595 H   0  0  0  0  0  0  0  0  0  0  0  0
    5.7202    0.7521   -0.6843 H   0  0  0  0  0  0  0  0  0  0  0  0
  1  2  2  0
  1  3  1  0
  7  3  1  0
  7  8  1  0
  9  8  1  0
  9 11  1  0
  2  4  1  0
  3  5  2  0
  8 10  1  0
 11 13  1  0
 10 12  1  0
 13 14  1  0
 13 12  1  0
 15 14  2  0
  4 17  1  0
  4  6  2  0
  5  6  1  0
 14 16  1  0
  1 18  1  0
  2 19  1  0
  5 20  1  0
  6 21  1  0
  7 22  1  0
  7 23  1  0
  8 24  1  6
  9 25  1  0
  9 26  1  0
 10 27  1  0
 10 28  1  0
 11 29  1  0
 11 30  1  0
 12 31  1  0
 12 32  1  0
 16 33  1  0
 16 34  1  0
 16 35  1  0
M  END
