
     RDKit          3D

 35 36  0  0  0  0  0  0  0  0999 V2000
    3.4472   -0.4150    0.1563 N   0  0  0  0  0  0  0  0  0  0  0  0
   -0.2629    1.2103   -0.0782 N   0  0  0  0  0  0  0  0  0  0  0  0
    4.2370    0.6785    0.1909 C   0  0  0  0  0  0  0  0  0  0  0  0
    3.4093    1.7722    0.1209 C   0  0  0  0  0  0  0  0  0  0  0  0
    2.1221    1.2198    0.0389 C   0  0  0  0  0  0  0  0  0  0  0  0
    0.8466    1.9612   -0.0555 C   0  0  0  0  0  0  0  0  0  0  0  0
   -1.5859    1.7909   -0.2093 C   0  0  0  0  0  0  0  0  0  0  0  0
   -3.0265   -0.0245   -1.1845 C   0  0  0  0  0  0  0  0  0  0  0  0
   -4.1447   -0.5746    1.2989 C   0  0  0  0  0  0  0  0  0  0  0  0
    4.1618   -2.2260   -1.3279 C   0  0  0  0  0  0  0  0  0  0  0  0
   -3.9687   -1.0363   -1.0688 C   0  0  0  0  0  0  0  0  0  0  0  0
   -4.5109   -1.2913    0.1762 C   0  0  0  0  0  0  0  0  0  0  0  0
   -3.1985    0.4310    1.1609 C   0  0  0  0  0  0  0  0  0  0  0  0
    3.8612   -1.8169    0.1074 C   0  0  1  0  0  0  0  0  0  0  0  0
    5.0369   -2.0690    1.0366 C   0  0  0  0  0  0  0  0  0  0  0  0
   -2.6314    0.7201   -0.0767 C   0  0  0  0  0  0  0  0  0  0  0  0
    2.1691   -0.1045    0.0572 N   0  0  0  0  0  0  0  0  0  0  0  0
    0.8319    3.1850   -0.1083 O   0  0  0  0  0  0  0  0  0  0  0  0
   -0.1716    0.2062   -0.0570 H   0  0  0  0  0  0  0  0  0  0  0  0
    5.3097    0.6096    0.2625 H   0  0  0  0  0  0  0  0  0  0  0  0
    3.6896    2.8117    0.1327 H   0  0  0  0  0  0  0  0  0  0  0  0
   -1.7309    2.5529    0.5590 H   0  0  0  0  0  0  0  0  0  0  0  0
   -1.6815    2.2922   -1.1765 H   0  0  0  0  0  0  0  0  0  0  0  0
   -2.5985    0.1877   -2.1567 H   0  0  0  0  0  0  0  0  0  0  0  0
   -4.5908   -0.7918    2.2607 H   0  0  0  0  0  0  0  0  0  0  0  0
    4.4106   -3.2863   -1.3685 H   0  0  0  0  0  0  0  0  0  0  0  0
    3.3021   -2.0563   -1.9757 H   0  0  0  0  0  0  0  0  0  0  0  0
    5.0098   -1.6646   -1.7227 H   0  0  0  0  0  0  0  0  0  0  0  0
   -4.2760   -1.6129   -1.9313 H   0  0  0  0  0  0  0  0  0  0  0  0
   -2.9059    1.0024    2.0333 H   0  0  0  0  0  0  0  0  0  0  0  0
    2.9980   -2.3769    0.4690 H   0  0  0  0  0  0  0  0  0  0  0  0
    5.9450   -1.5722    0.6919 H   0  0  0  0  0  0  0  0  0  0  0  0
    4.8244   -1.7374    2.0526 H   0  0  0  0  0  0  0  0  0  0  0  0
    5.2441   -3.1377    1.0663 H   0  0  0  0  0  0  0  0  0  0  0  0
   -5.4269   -2.2656    0.2974 F   0  0  0  0  0  0  0  0  0  0  0  0
 15 14  1  0
 10 14  1  0
 14  1  1  0
  1 17  1  0
  1  3  1  0
 17  5  2  0
  3  4  2  0
  5  4  1  0
  5  6  1  0
  6  2  1  0
  6 18  2  0
  2  7  1  0
  7 16  1  0
 16 13  1  0
 16  8  2  0
 13  9  2  0
  8 11  1  0
  9 12  1  0
 11 12  2  0
 12 35  1  0
  2 19  1  0
  3 20  1  0
  4 21  1  0
  7 22  1  0
  7 23  1  0
  8 24  1  0
  9 25  1  0
 10 26  1  0
 10 27  1  0
 10 28  1  0
 11 29  1  0
 13 30  1  0
 14 31  1  1
 15 32  1  0
 15 33  1  0
 15 34  1  0
M  END
