
     RDKit          3D

 55 54  0  0  0  0  0  0  0  0999 V2000
   13.7103   12.8434   16.5933 C   0  0  0  0  0  0  0  0  0  0  0  0
   12.8526   12.0019   16.5779 O   0  0  0  0  0  0  0  0  0  0  0  0
   13.6853   13.7807   17.5386 O   0  0  0  0  0  0  0  0  0  0  0  0
   14.8433   12.9242   15.5978 C   0  0  0  0  0  0  0  0  0  0  0  0
   14.7656   14.2056   14.7648 C   0  0  2  0  0  0  0  0  0  0  0  0
   13.4916   14.2537   14.1813 O   0  0  0  0  0  0  0  0  0  0  0  0
   15.9141   14.1792   13.7536 C   0  0  0  0  0  0  0  0  0  0  0  0
   17.0613   14.3734   14.1285 O   0  0  0  0  0  0  0  0  0  0  0  0
   15.5530   13.8875   12.5006 N   0  0  0  0  0  0  0  0  0  0  0  0
   16.4731   13.7372   11.4033 C   0  0  1  0  0  0  0  0  0  0  0  0
   16.2517   12.4060   10.6756 C   0  0  0  0  0  0  0  0  0  0  0  0
   16.3995   11.1622   11.5518 C   0  0  1  0  0  0  0  0  0  0  0  0
   16.1169    9.9189   10.7140 C   0  0  0  0  0  0  0  0  0  0  0  0
   17.7792   11.0711   12.1974 C   0  0  0  0  0  0  0  0  0  0  0  0
   16.2843   14.8804   10.4066 C   0  0  0  0  0  0  0  0  0  0  0  0
   15.1807   15.3621   10.2012 O   0  0  0  0  0  0  0  0  0  0  0  0
   17.3999   15.2457    9.7602 N   0  0  0  0  0  0  0  0  0  0  0  0
   17.4478   16.2404    8.7099 C   0  0  0  0  0  0  0  0  0  0  0  0
   17.9767   17.5902    9.1796 C   0  0  0  0  0  0  0  0  0  0  0  0
   17.1133   18.2367   10.2532 C   0  0  0  0  0  0  0  0  0  0  0  0
   17.6390   19.6105   10.6323 C   0  0  0  0  0  0  0  0  0  0  0  0
   16.8070   20.1903   11.6734 N   0  0  0  0  0  0  0  0  0  0  0  0
   16.9237   21.4303   12.1265 C   0  0  0  0  0  0  0  0  0  0  0  0
   17.8645   22.2333   11.6478 N   0  0  0  0  0  0  0  0  0  0  0  0
   16.0870   21.8740   13.0564 N   0  0  0  0  0  0  0  0  0  0  0  0
   14.4567   14.3609   17.5045 H   0  0  0  0  0  0  0  0  0  0  0  0
   15.8006   12.8903   16.1234 H   0  0  0  0  0  0  0  0  0  0  0  0
   14.7904   12.0517   14.9458 H   0  0  0  0  0  0  0  0  0  0  0  0
   14.9447   15.0787   15.4042 H   0  0  0  0  0  0  0  0  0  0  0  0
   13.2811   15.1661   13.9560 H   0  0  0  0  0  0  0  0  0  0  0  0
   14.5689   13.7628   12.3135 H   0  0  0  0  0  0  0  0  0  0  0  0
   17.4841   13.7664   11.8123 H   0  0  0  0  0  0  0  0  0  0  0  0
   15.2552   12.4150   10.2217 H   0  0  0  0  0  0  0  0  0  0  0  0
   16.9671   12.3483    9.8486 H   0  0  0  0  0  0  0  0  0  0  0  0
   15.6495   11.2096   12.3492 H   0  0  0  0  0  0  0  0  0  0  0  0
   16.1522    9.0157   11.3249 H   0  0  0  0  0  0  0  0  0  0  0  0
   15.1309    9.9642   10.2478 H   0  0  0  0  0  0  0  0  0  0  0  0
   16.8564    9.8098    9.9169 H   0  0  0  0  0  0  0  0  0  0  0  0
   17.8936   10.1263   12.7313 H   0  0  0  0  0  0  0  0  0  0  0  0
   18.5672   11.1231   11.4419 H   0  0  0  0  0  0  0  0  0  0  0  0
   17.9563   11.8700   12.9186 H   0  0  0  0  0  0  0  0  0  0  0  0
   18.2728   14.8227   10.0331 H   0  0  0  0  0  0  0  0  0  0  0  0
   18.0844   15.8595    7.9099 H   0  0  0  0  0  0  0  0  0  0  0  0
   16.4455   16.3506    8.2968 H   0  0  0  0  0  0  0  0  0  0  0  0
   19.0006   17.4729    9.5472 H   0  0  0  0  0  0  0  0  0  0  0  0
   18.0357   18.2459    8.3063 H   0  0  0  0  0  0  0  0  0  0  0  0
   16.0834   18.3273    9.8983 H   0  0  0  0  0  0  0  0  0  0  0  0
   17.0922   17.6026   11.1437 H   0  0  0  0  0  0  0  0  0  0  0  0
   18.6747   19.5303   10.9768 H   0  0  0  0  0  0  0  0  0  0  0  0
   17.6301   20.2618    9.7544 H   0  0  0  0  0  0  0  0  0  0  0  0
   16.1194   19.5969   12.1104 H   0  0  0  0  0  0  0  0  0  0  0  0
   17.9603   23.1751   11.9875 H   0  0  0  0  0  0  0  0  0  0  0  0
   18.5965   21.8930   11.0478 H   0  0  0  0  0  0  0  0  0  0  0  0
   15.3090   21.3164   13.3652 H   0  0  0  0  0  0  0  0  0  0  0  0
   16.1571   22.8085   13.4209 H   0  0  0  0  0  0  0  0  0  0  0  0
  1  2  2  0
  1  3  1  0
  1  4  1  0
  3 26  1  0
  4  5  1  0
  4 27  1  0
  4 28  1  0
  5  6  1  0
  5  7  1  0
  5 29  1  1
  6 30  1  0
  7  8  2  0
  7  9  1  0
  9 10  1  0
  9 31  1  0
 10 11  1  0
 10 15  1  0
 10 32  1  1
 11 12  1  0
 11 33  1  0
 11 34  1  0
 12 13  1  0
 12 14  1  0
 12 35  1  1
 13 36  1  0
 13 37  1  0
 13 38  1  0
 14 39  1  0
 14 40  1  0
 14 41  1  0
 15 16  2  0
 15 17  1  0
 17 18  1  0
 17 42  1  0
 18 19  1  0
 18 43  1  0
 18 44  1  0
 19 20  1  0
 19 45  1  0
 19 46  1  0
 20 21  1  0
 20 47  1  0
 20 48  1  0
 21 22  1  0
 21 49  1  0
 21 50  1  0
 22 23  1  0
 22 51  1  0
 23 24  1  0
 23 25  2  0
 24 52  1  0
 24 53  1  0
 25 54  1  0
 25 55  1  0
M  CHG  1  25   1
M  END
