
     RDKit          3D

 32 33  0  0  0  0  0  0  0  0999 V2000
   -1.5760    2.3473    0.1216 C   0  0  0  0  0  0  0  0  0  0  0  0
    2.3518   -2.4255    0.0854 C   0  0  0  0  0  0  0  0  0  0  0  0
   -0.3454    1.7163    0.1236 C   0  0  0  0  0  0  0  0  0  0  0  0
    1.1283   -1.7761    0.1043 C   0  0  0  0  0  0  0  0  0  0  0  0
   -3.8267   -0.5944   -0.0027 N   0  0  0  0  0  0  0  0  0  0  0  0
    4.6772    1.7355   -0.1188 O   0  0  0  0  0  0  0  0  0  0  0  0
    3.4735   -0.3153   -0.0100 C   0  0  0  0  0  0  0  0  0  0  0  0
    3.5332   -1.7055    0.0264 C   0  0  0  0  0  0  0  0  0  0  0  0
    2.2407    0.3288    0.0088 C   0  0  0  0  0  0  0  0  0  0  0  0
    1.0422   -0.3810    0.0614 C   0  0  0  0  0  0  0  0  0  0  0  0
   -0.2674    0.3216    0.0746 C   0  0  0  0  0  0  0  0  0  0  0  0
   -1.4637   -0.3903    0.0341 C   0  0  0  0  0  0  0  0  0  0  0  0
   -2.7078    0.2419    0.0337 C   0  0  0  0  0  0  0  0  0  0  0  0
   -5.1456   -0.2724   -0.0633 C   0  0  0  0  0  0  0  0  0  0  0  0
   -6.0734   -1.4603   -0.0631 C   0  0  0  0  0  0  0  0  0  0  0  0
   -2.7649    1.6346    0.0761 C   0  0  0  0  0  0  0  0  0  0  0  0
   -5.5662    0.8704   -0.1040 O   0  0  0  0  0  0  0  0  0  0  0  0
    5.8118   -0.1820   -0.0907 O   0  0  0  0  0  0  0  0  0  0  0  0
   -1.6159    3.4280    0.1636 H   0  0  0  0  0  0  0  0  0  0  0  0
    2.3809   -3.5062    0.1132 H   0  0  0  0  0  0  0  0  0  0  0  0
    0.5430    2.3296    0.1591 H   0  0  0  0  0  0  0  0  0  0  0  0
    0.2386   -2.3869    0.1548 H   0  0  0  0  0  0  0  0  0  0  0  0
   -3.6176   -1.5807    0.0008 H   0  0  0  0  0  0  0  0  0  0  0  0
    4.4788   -2.2288    0.0115 H   0  0  0  0  0  0  0  0  0  0  0  0
    2.2365    1.4086   -0.0238 H   0  0  0  0  0  0  0  0  0  0  0  0
   -1.4512   -1.4717   -0.0050 H   0  0  0  0  0  0  0  0  0  0  0  0
   -5.5639   -2.4217   -0.0851 H   0  0  0  0  0  0  0  0  0  0  0  0
   -6.6947   -1.4246    0.8316 H   0  0  0  0  0  0  0  0  0  0  0  0
   -6.7385   -1.3995   -0.9238 H   0  0  0  0  0  0  0  0  0  0  0  0
   -3.7042    2.1603    0.0799 H   0  0  0  0  0  0  0  0  0  0  0  0
    6.5793    0.4079   -0.1317 H   0  0  0  0  0  0  0  0  0  0  0  0
    4.6938    0.5286   -0.0754 C   0  0  0  0  0  0  0  0  0  0  0  0
  2  8  2  0
  2  4  1  0
  8  7  1  0
  6 32  2  0
  4 10  2  0
  7 32  1  0
  7  9  2  0
 32 18  1  0
 10  9  1  0
 10 11  1  0
 11  3  1  0
 11 12  2  0
  3  1  2  0
 12 13  1  0
  1 16  1  0
 13 16  2  0
 13  5  1  0
  5 14  1  0
 15 14  1  0
 14 17  2  0
  1 19  1  0
  2 20  1  0
  3 21  1  0
  4 22  1  0
  5 23  1  0
  8 24  1  0
  9 25  1  0
 12 26  1  0
 15 27  1  0
 15 28  1  0
 15 29  1  0
 16 30  1  0
 18 31  1  0
M  END
