
     RDKit          3D

 29 30  0  0  0  0  0  0  0  0999 V2000
   -2.4410   -1.6653    1.0598 N   0  0  0  0  0  0  0  0  0  0  0  0
   -2.0196   -0.4354    0.4384 C   0  0  1  0  0  0  0  0  0  0  0  0
   -1.1828   -0.6585   -0.8435 C   0  0  0  0  0  0  0  0  0  0  0  0
    0.2230   -0.9370   -0.5241 C   0  0  0  0  0  0  0  0  0  0  0  0
    0.7739   -2.2193   -0.4631 C   0  0  0  0  0  0  0  0  0  0  0  0
    2.1267   -2.1442   -0.1370 N   0  0  0  0  0  0  0  0  0  0  0  0
    2.4706   -0.7993    0.0184 C   0  0  0  0  0  0  0  0  0  0  0  0
    3.7105   -0.2272    0.3448 C   0  0  0  0  0  0  0  0  0  0  0  0
    3.7673    1.1525    0.4338 C   0  0  0  0  0  0  0  0  0  0  0  0
    2.6458    1.9581    0.2109 C   0  0  0  0  0  0  0  0  0  0  0  0
    1.3895    1.4112   -0.1180 C   0  0  0  0  0  0  0  0  0  0  0  0
    0.2910    2.2420   -0.3340 N   0  0  0  0  0  0  0  0  0  0  0  0
    1.2910    0.0001   -0.2187 C   0  0  0  0  0  0  0  0  0  0  0  0
   -3.1806    0.4891    0.0790 C   0  0  0  0  0  0  0  0  0  0  0  0
   -2.8687    1.8145    0.1128 O   0  0  0  0  0  0  0  0  0  0  0  0
   -4.3385    0.1963   -0.2311 O   0  0  0  0  0  0  0  0  0  0  0  0
   -2.9542   -1.4830    1.8996 H   0  0  0  0  0  0  0  0  0  0  0  0
   -3.0035   -2.2130    0.4389 H   0  0  0  0  0  0  0  0  0  0  0  0
   -1.3800    0.1247    1.1874 H   0  0  0  0  0  0  0  0  0  0  0  0
   -1.6137   -1.5128   -1.4333 H   0  0  0  0  0  0  0  0  0  0  0  0
   -1.2616    0.2545   -1.4926 H   0  0  0  0  0  0  0  0  0  0  0  0
    0.2906   -3.1840   -0.6309 H   0  0  0  0  0  0  0  0  0  0  0  0
    2.7414   -2.9053   -0.0323 H   0  0  0  0  0  0  0  0  0  0  0  0
    4.5947   -0.8503    0.5211 H   0  0  0  0  0  0  0  0  0  0  0  0
    4.7222    1.6382    0.6876 H   0  0  0  0  0  0  0  0  0  0  0  0
    2.7592    3.0488    0.2976 H   0  0  0  0  0  0  0  0  0  0  0  0
    0.2468    2.8075   -1.1515 H   0  0  0  0  0  0  0  0  0  0  0  0
   -0.4576    2.2798    0.3219 H   0  0  0  0  0  0  0  0  0  0  0  0
   -3.6475    2.3453   -0.1247 H   0  0  0  0  0  0  0  0  0  0  0  0
  1  2  1  0
  1 17  1  0
  1 18  1  0
  2  3  1  0
  2 14  1  0
  2 19  1  1
  3  4  1  0
  3 20  1  0
  3 21  1  0
  4  5  2  0
  4 13  1  0
  5  6  1  0
  5 22  1  0
  6  7  1  0
  6 23  1  0
  7  8  1  0
  7 13  2  0
  8  9  2  0
  8 24  1  0
  9 10  1  0
  9 25  1  0
 10 11  2  0
 10 26  1  0
 11 12  1  0
 11 13  1  0
 12 27  1  0
 12 28  1  0
 14 15  1  0
 14 16  2  0
 15 29  1  0
M  END
