
     RDKit          3D

 84 88  0  0  0  0  0  0  0  0999 V2000
    2.6327    4.4316    2.6745 N   0  0  0  0  0  0  0  0  0  0  0  0
    2.5932    4.5741    1.3435 C   0  0  0  0  0  0  0  0  0  0  0  0
    1.3128    4.1621    0.6781 C   0  0  0  0  0  0  0  0  0  0  0  0
    1.3671    3.7668   -0.6547 C   0  0  0  0  0  0  0  0  0  0  0  0
    0.2216    3.3577   -1.3149 C   0  0  0  0  0  0  0  0  0  0  0  0
   -0.9926    3.3598   -0.6379 C   0  0  0  0  0  0  0  0  0  0  0  0
   -1.0755    3.8136    0.6719 C   0  0  0  0  0  0  0  0  0  0  0  0
    0.0825    4.2008    1.3289 C   0  0  0  0  0  0  0  0  0  0  0  0
   -2.4481    2.7253   -1.4410 S   0  0  1  0  0  0  0  0  0  0  0  0
   -3.5551    3.5748   -1.0381 O   0  0  0  0  0  0  0  0  0  0  0  0
   -2.1278    2.5646   -2.8493 O   0  0  0  0  0  0  0  0  0  0  0  0
   -2.7385    1.2231   -0.8291 N   0  0  0  0  0  0  0  0  0  0  0  0
   -3.1623    1.1221    0.5694 C   0  0  0  0  0  0  0  0  0  0  0  0
   -4.3163    0.1669    0.7123 C   0  0  0  0  0  0  0  0  0  0  0  0
   -5.5026    0.3967    0.0191 C   0  0  0  0  0  0  0  0  0  0  0  0
   -6.5726   -0.4663    0.1573 C   0  0  0  0  0  0  0  0  0  0  0  0
   -6.4669   -1.5763    0.9942 C   0  0  0  0  0  0  0  0  0  0  0  0
   -7.6389   -2.4982    1.1119 C   0  0  1  0  0  0  0  0  0  0  0  0
   -7.4681   -3.4367    2.0469 F   0  0  0  0  0  0  0  0  0  0  0  0
   -8.7620   -1.8347    1.4217 F   0  0  0  0  0  0  0  0  0  0  0  0
   -7.8844   -3.1365   -0.0425 F   0  0  0  0  0  0  0  0  0  0  0  0
   -5.2870   -1.8180    1.6798 C   0  0  0  0  0  0  0  0  0  0  0  0
   -4.2151   -0.9462    1.5331 C   0  0  0  0  0  0  0  0  0  0  0  0
   -2.1737   -0.0035   -1.4037 C   0  0  1  0  0  0  0  0  0  0  0  0
   -2.5282   -0.3339   -2.8726 C   0  0  0  0  0  0  0  0  0  0  0  0
   -1.2784   -0.4014   -3.6211 N   0  0  0  0  0  0  0  0  0  0  0  0
   -0.3063   -0.8947   -2.6609 C   0  0  0  0  0  0  0  0  0  0  0  0
   -0.6354   -0.1242   -1.3661 C   0  0  2  0  0  0  0  0  0  0  0  0
   -0.0786   -0.5483   -0.0829 N   0  0  0  0  0  0  0  0  0  0  0  0
    0.5890    0.4281    0.7679 C   0  0  0  0  0  0  0  0  0  0  0  0
    2.0854    0.5238    0.5988 C   0  0  0  0  0  0  0  0  0  0  0  0
    2.8457    1.0177    1.6534 C   0  0  0  0  0  0  0  0  0  0  0  0
    4.2244    1.0888    1.5645 C   0  0  0  0  0  0  0  0  0  0  0  0
    4.8652    0.6553    0.4093 C   0  0  0  0  0  0  0  0  0  0  0  0
    6.3573    0.6277    0.3541 C   0  0  1  0  0  0  0  0  0  0  0  0
    6.8255    0.6433   -0.8988 F   0  0  0  0  0  0  0  0  0  0  0  0
    6.9089    1.6687    0.9918 F   0  0  0  0  0  0  0  0  0  0  0  0
    6.8512   -0.4786    0.9352 F   0  0  0  0  0  0  0  0  0  0  0  0
    4.1142    0.1805   -0.6568 C   0  0  0  0  0  0  0  0  0  0  0  0
    2.7335    0.1303   -0.5631 C   0  0  0  0  0  0  0  0  0  0  0  0
   -0.1878   -2.0883    0.4985 S   0  0  1  0  0  0  0  0  0  0  0  0
    1.4767   -2.6845    0.3762 C   0  0  0  0  0  0  0  0  0  0  0  0
    1.9363   -3.1543   -0.8472 C   0  0  0  0  0  0  0  0  0  0  0  0
    3.2849   -3.4135   -1.0037 C   0  0  0  0  0  0  0  0  0  0  0  0
    4.1669   -3.2305    0.0584 C   0  0  0  0  0  0  0  0  0  0  0  0
    5.6292   -3.4490   -0.1860 C   0  0  0  0  0  0  0  0  0  0  0  0
    6.1111   -3.2435   -1.2894 O   0  0  0  0  0  0  0  0  0  0  0  0
    6.3402   -3.8739    0.8657 N   0  0  0  0  0  0  0  0  0  0  0  0
    3.6824   -2.7953    1.2864 C   0  0  0  0  0  0  0  0  0  0  0  0
    2.3350   -2.5176    1.4516 C   0  0  0  0  0  0  0  0  0  0  0  0
   -0.5290   -2.0305    1.9108 O   0  0  0  0  0  0  0  0  0  0  0  0
   -1.0421   -2.8418   -0.4032 O   0  0  0  0  0  0  0  0  0  0  0  0
    3.5214    5.0139    0.6838 O   0  0  0  0  0  0  0  0  0  0  0  0
    1.9149    3.9541    3.1910 H   0  0  0  0  0  0  0  0  0  0  0  0
    3.4716    4.6718    3.1782 H   0  0  0  0  0  0  0  0  0  0  0  0
    2.3110    3.7593   -1.1816 H   0  0  0  0  0  0  0  0  0  0  0  0
    0.2880    3.0421   -2.3472 H   0  0  0  0  0  0  0  0  0  0  0  0
   -2.0212    3.8729    1.1929 H   0  0  0  0  0  0  0  0  0  0  0  0
   -0.0005    4.5515    2.3493 H   0  0  0  0  0  0  0  0  0  0  0  0
   -2.3305    0.8036    1.2044 H   0  0  0  0  0  0  0  0  0  0  0  0
   -3.4767    2.1000    0.9314 H   0  0  0  0  0  0  0  0  0  0  0  0
   -5.5887    1.2572   -0.6327 H   0  0  0  0  0  0  0  0  0  0  0  0
   -7.4867   -0.2661   -0.3870 H   0  0  0  0  0  0  0  0  0  0  0  0
   -5.1793   -2.6772    2.3269 H   0  0  0  0  0  0  0  0  0  0  0  0
   -3.2909   -1.1474    2.0611 H   0  0  0  0  0  0  0  0  0  0  0  0
   -2.5942   -0.7910   -0.7798 H   0  0  0  0  0  0  0  0  0  0  0  0
   -2.9977   -1.3198   -2.8902 H   0  0  0  0  0  0  0  0  0  0  0  0
   -3.2299    0.3615   -3.3236 H   0  0  0  0  0  0  0  0  0  0  0  0
   -1.0162    0.5354   -3.9044 H   0  0  0  0  0  0  0  0  0  0  0  0
   -0.4351   -1.9703   -2.5465 H   0  0  0  0  0  0  0  0  0  0  0  0
    0.7112   -0.7090   -3.0047 H   0  0  0  0  0  0  0  0  0  0  0  0
   -0.2025    0.8632   -1.5280 H   0  0  0  0  0  0  0  0  0  0  0  0
    0.1367    1.3993    0.5699 H   0  0  0  0  0  0  0  0  0  0  0  0
    0.3549    0.2281    1.8139 H   0  0  0  0  0  0  0  0  0  0  0  0
    2.3586    1.3284    2.5697 H   0  0  0  0  0  0  0  0  0  0  0  0
    4.7861    1.4688    2.4077 H   0  0  0  0  0  0  0  0  0  0  0  0
    4.5889   -0.1679   -1.5639 H   0  0  0  0  0  0  0  0  0  0  0  0
    2.1792   -0.2586   -1.4056 H   0  0  0  0  0  0  0  0  0  0  0  0
    1.2638   -3.2927   -1.6829 H   0  0  0  0  0  0  0  0  0  0  0  0
    3.6523   -3.7571   -1.9608 H   0  0  0  0  0  0  0  0  0  0  0  0
    5.9131   -4.1555    1.7309 H   0  0  0  0  0  0  0  0  0  0  0  0
    7.3305   -4.0309    0.7715 H   0  0  0  0  0  0  0  0  0  0  0  0
    4.3511   -2.6281    2.1202 H   0  0  0  0  0  0  0  0  0  0  0  0
    1.9781   -2.1508    2.4036 H   0  0  0  0  0  0  0  0  0  0  0  0
 47 46  2  0
 35 37  1  1
 33 32  2  0
 33 34  1  0
 36 35  1  0
 32 31  1  0
 44 43  2  0
 44 45  1  0
 35 34  1  0
 35 38  1  0
 46 45  1  0
 46 48  1  0
 34 39  2  0
 43 42  1  0
 31 30  1  0
 31 40  2  0
 45 49  2  0
 30 29  1  0
 39 40  1  0
 51 41  2  0
 42 41  1  0
 42 50  2  0
 41 29  1  6
 29 28  1  0
 49 50  1  0
 27 26  1  0
 27 28  1  0
 26 25  1  0
 41 52  2  0
 25 24  1  0
 28 24  1  0
 24 12  1  0
  1  2  1  0
  8  7  1  0
  8  3  2  0
 12 13  1  0
  9 12  1  1
  7  6  2  0
 11  9  2  0
  2  3  1  0
  2 53  2  0
  3  4  1  0
 15 16  2  0
 15 14  1  0
  6  9  1  0
  6  5  1  0
 13 14  1  0
 16 17  1  0
  9 10  2  0
 14 23  2  0
 18 19  1  1
  4  5  2  0
 20 18  1  0
 17 18  1  0
 17 22  2  0
 23 22  1  0
 18 21  1  0
  1 54  1  0
  1 55  1  0
  4 56  1  0
  5 57  1  0
  7 58  1  0
  8 59  1  0
 13 60  1  0
 13 61  1  0
 15 62  1  0
 16 63  1  0
 22 64  1  0
 23 65  1  0
 24 66  1  1
 25 67  1  0
 25 68  1  0
 26 69  1  0
 27 70  1  0
 27 71  1  0
 28 72  1  6
 30 73  1  0
 30 74  1  0
 32 75  1  0
 33 76  1  0
 39 77  1  0
 40 78  1  0
 43 79  1  0
 44 80  1  0
 48 81  1  0
 48 82  1  0
 49 83  1  0
 50 84  1  0
M  END
