
     RDKit          3D

 24 25  0  0  0  0  0  0  0  0999 V2000
    0.7430    0.2234   -0.1388 C   0  0  0  0  0  0  0  0  0  0  0  0
   -0.3782    1.0423   -0.0921 C   0  0  0  0  0  0  0  0  0  0  0  0
   -0.1211    2.9117   -0.1068 Br  0  0  0  0  0  0  0  0  0  0  0  0
   -1.6750    0.5356   -0.0326 C   0  0  0  0  0  0  0  0  0  0  0  0
   -2.7941    1.2644    0.0185 O   0  0  0  0  0  0  0  0  0  0  0  0
   -1.7976   -0.8580   -0.0230 C   0  0  0  0  0  0  0  0  0  0  0  0
   -3.5207   -1.6044    0.0595 Br  0  0  0  0  0  0  0  0  0  0  0  0
   -0.7019   -1.6964   -0.0671 C   0  0  0  0  0  0  0  0  0  0  0  0
    0.5759   -1.1517   -0.1239 C   0  0  0  0  0  0  0  0  0  0  0  0
    1.6032   -2.0404   -0.1726 O   0  0  0  0  0  0  0  0  0  0  0  0
    2.8943   -1.5730   -0.0883 C   0  0  0  0  0  0  0  0  0  0  0  0
    3.4495   -1.3182    1.1570 C   0  0  0  0  0  0  0  0  0  0  0  0
    4.7669   -0.8882    1.2340 C   0  0  0  0  0  0  0  0  0  0  0  0
    5.5169   -0.7132    0.0778 C   0  0  0  0  0  0  0  0  0  0  0  0
    4.9467   -0.9723   -1.1614 C   0  0  0  0  0  0  0  0  0  0  0  0
    3.6284   -1.4002   -1.2513 C   0  0  0  0  0  0  0  0  0  0  0  0
    1.7286    0.6659   -0.1872 H   0  0  0  0  0  0  0  0  0  0  0  0
   -2.6151    2.2133    0.0103 H   0  0  0  0  0  0  0  0  0  0  0  0
   -0.8258   -2.7713   -0.0598 H   0  0  0  0  0  0  0  0  0  0  0  0
    2.8621   -1.4613    2.0554 H   0  0  0  0  0  0  0  0  0  0  0  0
    5.2068   -0.6908    2.2026 H   0  0  0  0  0  0  0  0  0  0  0  0
    6.5440   -0.3794    0.1435 H   0  0  0  0  0  0  0  0  0  0  0  0
    5.5268   -0.8402   -2.0651 H   0  0  0  0  0  0  0  0  0  0  0  0
    3.1781   -1.6058   -2.2140 H   0  0  0  0  0  0  0  0  0  0  0  0
  1  2  2  0
  1  9  1  0
  2  3  1  0
  2  4  1  0
  4  5  1  0
  4  6  2  0
  6  7  1  0
  6  8  1  0
  8  9  2  0
  9 10  1  0
 10 11  1  0
 11 12  2  0
 11 16  1  0
 12 13  1  0
 13 14  2  0
 14 15  1  0
 15 16  2  0
  1 17  1  0
  5 18  1  0
  8 19  1  0
 12 20  1  0
 13 21  1  0
 14 22  1  0
 15 23  1  0
 16 24  1  0
M  END
