
     RDKit          3D

 19 19  0  0  0  0  0  0  0  0999 V2000
   -0.9510   -0.3313    0.0909 C   0  0  0  0  0  0  0  0  0  0  0  0
   -0.4097   -1.5799   -0.0124 C   0  0  0  0  0  0  0  0  0  0  0  0
    1.0019   -1.5798    0.1051 C   0  0  0  0  0  0  0  0  0  0  0  0
    1.5265   -0.3362    0.3077 C   0  0  0  0  0  0  0  0  0  0  0  0
    0.2791    0.8482    0.3537 S   0  0  0  0  0  0  0  0  0  0  0  0
   -2.3771    0.0296    0.0271 C   0  0  0  0  0  0  0  0  0  0  0  0
   -3.2413   -0.8631    0.3209 N   0  0  0  0  0  0  0  0  0  0  0  0
   -2.6244    1.3370   -0.2962 N   0  0  0  0  0  0  0  0  0  0  0  0
    2.9639    0.0608    0.4302 C   0  0  0  0  0  0  0  0  0  0  0  0
    3.4835    0.5426   -0.8449 N   0  0  0  0  0  0  0  0  0  0  0  0
   -1.0070   -2.4650   -0.1776 H   0  0  0  0  0  0  0  0  0  0  0  0
    1.6138   -2.4693    0.0414 H   0  0  0  0  0  0  0  0  0  0  0  0
   -4.1863   -0.5133    0.1874 H   0  0  0  0  0  0  0  0  0  0  0  0
   -1.9955    1.7901   -0.9409 H   0  0  0  0  0  0  0  0  0  0  0  0
   -3.5881    1.5901   -0.4500 H   0  0  0  0  0  0  0  0  0  0  0  0
    3.0757    0.7774    1.2537 H   0  0  0  0  0  0  0  0  0  0  0  0
    3.5284   -0.8277    0.7178 H   0  0  0  0  0  0  0  0  0  0  0  0
    3.0395    1.4226   -1.0784 H   0  0  0  0  0  0  0  0  0  0  0  0
    4.4664    0.7590   -0.7316 H   0  0  0  0  0  0  0  0  0  0  0  0
  1  2  2  0
  1  5  1  0
  1  6  1  0
  2  3  1  0
  2 11  1  0
  3  4  2  0
  3 12  1  0
  4  5  1  0
  4  9  1  0
  6  7  2  0
  6  8  1  0
  7 13  1  0
  8 14  1  0
  8 15  1  0
  9 10  1  0
  9 16  1  0
  9 17  1  0
 10 18  1  0
 10 19  1  0
M  END
