
     RDKit          3D

 22 23  0  0  0  0  0  0  0  0999 V2000
    2.0098    2.1729   -0.4874 C   0  0  0  0  0  0  0  0  0  0  0  0
    2.2293    0.7296   -0.1858 C   0  0  0  0  0  0  0  0  0  0  0  0
    3.3012   -1.0573    0.1478 N   0  0  0  0  0  0  0  0  0  0  0  0
    2.0190   -1.4255    0.2451 C   0  0  0  0  0  0  0  0  0  0  0  0
    1.2649   -0.2875    0.0353 C   0  0  0  0  0  0  0  0  0  0  0  0
   -0.1957   -0.1993    0.0246 C   0  0  0  0  0  0  0  0  0  0  0  0
   -2.2506    1.0028    0.5008 C   0  0  0  0  0  0  0  0  0  0  0  0
   -2.9718   -0.0690    0.0141 C   0  0  0  0  0  0  0  0  0  0  0  0
   -2.3513   -1.2063   -0.4655 C   0  0  0  0  0  0  0  0  0  0  0  0
   -0.9662   -1.2590   -0.4620 C   0  0  0  0  0  0  0  0  0  0  0  0
    3.4529    0.2359   -0.1158 N   0  0  0  0  0  0  0  0  0  0  0  0
   -0.8654    0.9270    0.5068 C   0  0  0  0  0  0  0  0  0  0  0  0
   -4.3140   -0.0038    0.0060 F   0  0  0  0  0  0  0  0  0  0  0  0
    1.7344    2.7382    0.4047 H   0  0  0  0  0  0  0  0  0  0  0  0
    2.9179    2.6200   -0.8890 H   0  0  0  0  0  0  0  0  0  0  0  0
    1.2110    2.3111   -1.2164 H   0  0  0  0  0  0  0  0  0  0  0  0
    4.1107   -1.6458    0.2598 H   0  0  0  0  0  0  0  0  0  0  0  0
    1.7316   -2.4409    0.4654 H   0  0  0  0  0  0  0  0  0  0  0  0
   -2.7565    1.8806    0.8808 H   0  0  0  0  0  0  0  0  0  0  0  0
   -2.9348   -2.0339   -0.8471 H   0  0  0  0  0  0  0  0  0  0  0  0
   -0.4786   -2.1396   -0.8602 H   0  0  0  0  0  0  0  0  0  0  0  0
   -0.3073    1.7581    0.9156 H   0  0  0  0  0  0  0  0  0  0  0  0
  7 12  2  0
  7  8  1  0
 12  6  1  0
  4  3  1  0
  4  5  2  0
 13  8  1  0
  8  9  2  0
  3 11  1  0
  6  5  1  0
  6 10  2  0
  5  2  1  0
 11  2  2  0
  2  1  1  0
  9 10  1  0
  1 14  1  0
  1 15  1  0
  1 16  1  0
  3 17  1  0
  4 18  1  0
  7 19  1  0
  9 20  1  0
 10 21  1  0
 12 22  1  0
M  END
