
     RDKit          3D

 60 64  0  0  0  0  0  0  0  0999 V2000
    3.1182    1.7138    1.9081 C   0  0  0  0  0  0  0  0  0  0  0  0
    3.6525    0.7188    0.9212 C   0  0  0  0  0  0  0  0  0  0  0  0
    4.9997    0.3746    0.9590 C   0  0  0  0  0  0  0  0  0  0  0  0
    5.5196   -0.5464    0.0630 C   0  0  0  0  0  0  0  0  0  0  0  0
    7.2431   -0.9660    0.1505 S   0  0  1  0  0  0  0  0  0  0  0  0
    7.6761   -1.3952   -1.1776 O   0  0  0  0  0  0  0  0  0  0  0  0
    7.9513    0.1355    0.7992 O   0  0  0  0  0  0  0  0  0  0  0  0
    7.2787   -2.3739    1.2350 C   0  0  0  0  0  0  0  0  0  0  0  0
    4.7240   -1.1510   -0.8967 C   0  0  0  0  0  0  0  0  0  0  0  0
    3.3826   -0.8162   -0.9392 C   0  0  0  0  0  0  0  0  0  0  0  0
    2.8405    0.1081   -0.0465 C   0  0  0  0  0  0  0  0  0  0  0  0
    1.4172    0.4512   -0.1563 C   0  0  0  0  0  0  0  0  0  0  0  0
    0.4186   -0.4714   -0.1941 N   0  0  0  0  0  0  0  0  0  0  0  0
    0.5358   -1.8949    0.0523 C   0  0  0  0  0  0  0  0  0  0  0  0
    0.9471    1.6650   -0.2797 N   0  0  0  0  0  0  0  0  0  0  0  0
   -0.4022    1.5411   -0.4171 C   0  0  0  0  0  0  0  0  0  0  0  0
   -1.2414    2.7208   -0.6059 C   0  0  0  0  0  0  0  0  0  0  0  0
   -0.8068    3.9675   -0.1544 C   0  0  0  0  0  0  0  0  0  0  0  0
   -1.6107    5.0772   -0.3515 C   0  0  0  0  0  0  0  0  0  0  0  0
   -2.7919    5.0369   -0.9592 N   0  0  0  0  0  0  0  0  0  0  0  0
   -3.2007    3.8516   -1.3998 C   0  0  0  0  0  0  0  0  0  0  0  0
   -2.4758    2.6810   -1.2546 C   0  0  0  0  0  0  0  0  0  0  0  0
   -0.7570    0.2093   -0.3583 C   0  0  0  0  0  0  0  0  0  0  0  0
   -2.0597   -0.4584   -0.3870 C   0  0  0  0  0  0  0  0  0  0  0  0
   -3.0289   -0.1272    0.5265 C   0  0  0  0  0  0  0  0  0  0  0  0
   -4.2994   -0.7415    0.4955 C   0  0  0  0  0  0  0  0  0  0  0  0
   -5.3127   -0.4114    1.4200 C   0  0  0  0  0  0  0  0  0  0  0  0
   -6.5377   -1.0199    1.3819 C   0  0  0  0  0  0  0  0  0  0  0  0
   -6.8110   -2.0050    0.4027 C   0  0  0  0  0  0  0  0  0  0  0  0
   -7.9899   -2.6448    0.3091 O   0  0  0  0  0  0  0  0  0  0  0  0
   -9.0151   -2.3410    1.2365 C   0  0  0  0  0  0  0  0  0  0  0  0
   -5.8410   -2.3459   -0.5138 C   0  0  0  0  0  0  0  0  0  0  0  0
   -4.5778   -1.7276   -0.4863 C   0  0  0  0  0  0  0  0  0  0  0  0
   -3.5608   -2.0559   -1.4177 C   0  0  0  0  0  0  0  0  0  0  0  0
   -2.3437   -1.4406   -1.3713 C   0  0  0  0  0  0  0  0  0  0  0  0
    2.9061    2.6696    1.4306 H   0  0  0  0  0  0  0  0  0  0  0  0
    2.1877    1.3720    2.3611 H   0  0  0  0  0  0  0  0  0  0  0  0
    3.8393    1.8874    2.7045 H   0  0  0  0  0  0  0  0  0  0  0  0
    5.6395    0.8323    1.7026 H   0  0  0  0  0  0  0  0  0  0  0  0
    5.1308   -1.8595   -1.6050 H   0  0  0  0  0  0  0  0  0  0  0  0
    6.6898   -3.1795    0.8026 H   0  0  0  0  0  0  0  0  0  0  0  0
    8.3192   -2.6828    1.3321 H   0  0  0  0  0  0  0  0  0  0  0  0
    6.8804   -2.0917    2.2067 H   0  0  0  0  0  0  0  0  0  0  0  0
    2.7549   -1.2651   -1.6981 H   0  0  0  0  0  0  0  0  0  0  0  0
   -0.2999   -2.2276    0.6629 H   0  0  0  0  0  0  0  0  0  0  0  0
    0.5410   -2.4628   -0.8762 H   0  0  0  0  0  0  0  0  0  0  0  0
    1.4569   -2.0963    0.5911 H   0  0  0  0  0  0  0  0  0  0  0  0
    0.1443    4.0705    0.3500 H   0  0  0  0  0  0  0  0  0  0  0  0
   -2.8714    1.7595   -1.6577 H   0  0  0  0  0  0  0  0  0  0  0  0
   -1.2815    6.0479    0.0030 H   0  0  0  0  0  0  0  0  0  0  0  0
   -4.1601    3.8270   -1.9051 H   0  0  0  0  0  0  0  0  0  0  0  0
   -2.8277    0.6187    1.2868 H   0  0  0  0  0  0  0  0  0  0  0  0
   -1.5896   -1.6904   -2.1070 H   0  0  0  0  0  0  0  0  0  0  0  0
   -5.1161    0.3407    2.1741 H   0  0  0  0  0  0  0  0  0  0  0  0
   -7.2863   -0.7359    2.1083 H   0  0  0  0  0  0  0  0  0  0  0  0
   -6.0500   -3.0986   -1.2652 H   0  0  0  0  0  0  0  0  0  0  0  0
   -8.7112   -2.5492    2.2652 H   0  0  0  0  0  0  0  0  0  0  0  0
   -9.3378   -1.2992    1.1657 H   0  0  0  0  0  0  0  0  0  0  0  0
   -9.8553   -2.9826    0.9835 H   0  0  0  0  0  0  0  0  0  0  0  0
   -3.7615   -2.8000   -2.1786 H   0  0  0  0  0  0  0  0  0  0  0  0
  1  2  1  0
  2  3  2  0
  2 11  1  0
  3  4  1  0
  4  5  1  0
  4  9  2  0
  5  6  2  0
  5  7  2  0
  5  8  1  1
  9 10  1  0
 10 11  2  0
 11 12  1  0
 12 13  1  0
 12 15  2  0
 13 14  1  0
 13 23  1  0
 15 16  1  0
 16 17  1  0
 16 23  2  0
 17 18  2  0
 17 22  1  0
 18 19  1  0
 19 20  2  0
 20 21  1  0
 21 22  2  0
 23 24  1  0
 24 25  2  0
 24 35  1  0
 25 26  1  0
 26 27  2  0
 26 33  1  0
 27 28  1  0
 28 29  2  0
 29 30  1  0
 29 32  1  0
 30 31  1  0
 32 33  2  0
 33 34  1  0
 34 35  2  0
  1 36  1  0
  1 37  1  0
  1 38  1  0
  3 39  1  0
  9 40  1  0
  8 41  1  0
  8 42  1  0
  8 43  1  0
 10 44  1  0
 14 45  1  0
 14 46  1  0
 14 47  1  0
 18 48  1  0
 22 49  1  0
 19 50  1  0
 21 51  1  0
 25 52  1  0
 35 53  1  0
 27 54  1  0
 28 55  1  0
 32 56  1  0
 31 57  1  0
 31 58  1  0
 31 59  1  0
 34 60  1  0
M  END
