
     RDKit          3D

 53 56  0  0  0  0  0  0  0  0999 V2000
    2.9994   -0.7463    1.2368 C   0  0  0  0  0  0  0  0  0  0  0  0
    4.1973   -1.3208    1.2206 N   0  0  0  0  0  0  0  0  0  0  0  0
    5.0587   -0.8836    0.3059 C   0  0  0  0  0  0  0  0  0  0  0  0
    4.8359    0.0663   -0.5979 N   0  0  0  0  0  0  0  0  0  0  0  0
    3.6325    0.6439   -0.5750 C   0  0  0  0  0  0  0  0  0  0  0  0
    2.6516    0.2842    0.3341 C   0  0  0  0  0  0  0  0  0  0  0  0
    2.1118   -1.2097    2.1404 N   0  0  0  0  0  0  0  0  0  0  0  0
    6.2984   -1.4342    0.3261 N   0  0  0  0  0  0  0  0  0  0  0  0
    3.3807    1.6695   -1.6416 C   0  0  0  0  0  0  0  0  0  0  0  0
    2.8068    1.0251   -2.9023 C   0  0  0  0  0  0  0  0  0  0  0  0
    1.1188    2.1450    1.0116 C   0  0  0  0  0  0  0  0  0  0  0  0
   -0.1352    2.7221    1.1049 C   0  0  0  0  0  0  0  0  0  0  0  0
   -1.2318    2.0505    0.5751 C   0  0  0  0  0  0  0  0  0  0  0  0
   -1.0407    0.8042   -0.0530 C   0  0  0  0  0  0  0  0  0  0  0  0
    0.2183    0.2230   -0.1510 C   0  0  0  0  0  0  0  0  0  0  0  0
    1.3069    0.9022    0.3844 C   0  0  0  0  0  0  0  0  0  0  0  0
   -2.2499    0.3334   -0.5017 N   0  0  0  0  0  0  0  0  0  0  0  0
   -2.4500   -0.9421   -1.1398 C   0  0  0  0  0  0  0  0  0  0  0  0
   -2.5375   -2.1005   -0.1520 C   0  0  0  0  0  0  0  0  0  0  0  0
   -2.7188   -3.4171   -0.8793 C   0  0  0  0  0  0  0  0  0  0  0  0
   -2.7304   -4.4599    0.0570 O   0  0  0  0  0  0  0  0  0  0  0  0
   -2.8997   -5.7169   -0.5366 C   0  0  0  0  0  0  0  0  0  0  0  0
   -4.6034    1.1751   -0.3788 C   0  0  0  0  0  0  0  0  0  0  0  0
   -3.2319    1.2339   -0.1559 C   0  0  0  0  0  0  0  0  0  0  0  0
   -2.6423    2.3274    0.5083 C   0  0  0  0  0  0  0  0  0  0  0  0
   -3.4380    3.3807    0.9472 C   0  0  0  0  0  0  0  0  0  0  0  0
   -4.8015    3.3289    0.7243 C   0  0  0  0  0  0  0  0  0  0  0  0
   -5.3728    2.2346    0.0679 C   0  0  0  0  0  0  0  0  0  0  0  0
    2.4526   -1.7991    2.8793 H   0  0  0  0  0  0  0  0  0  0  0  0
    1.2767   -0.6872    2.3374 H   0  0  0  0  0  0  0  0  0  0  0  0
    6.8757   -1.3053   -0.4855 H   0  0  0  0  0  0  0  0  0  0  0  0
    6.4144   -2.3079    0.8078 H   0  0  0  0  0  0  0  0  0  0  0  0
    4.3257    2.1593   -1.8804 H   0  0  0  0  0  0  0  0  0  0  0  0
    2.6970    2.4398   -1.2835 H   0  0  0  0  0  0  0  0  0  0  0  0
    3.4637    0.2394   -3.2754 H   0  0  0  0  0  0  0  0  0  0  0  0
    1.8281    0.5847   -2.7113 H   0  0  0  0  0  0  0  0  0  0  0  0
    2.6896    1.7661   -3.6927 H   0  0  0  0  0  0  0  0  0  0  0  0
   -0.2552    3.6800    1.5946 H   0  0  0  0  0  0  0  0  0  0  0  0
    0.3668   -0.7384   -0.6280 H   0  0  0  0  0  0  0  0  0  0  0  0
   -3.3545   -0.8842   -1.7473 H   0  0  0  0  0  0  0  0  0  0  0  0
   -1.6343   -1.1032   -1.8490 H   0  0  0  0  0  0  0  0  0  0  0  0
   -1.6261   -2.1394    0.4509 H   0  0  0  0  0  0  0  0  0  0  0  0
   -3.3708   -1.9356    0.5356 H   0  0  0  0  0  0  0  0  0  0  0  0
   -3.6544   -3.4016   -1.4590 H   0  0  0  0  0  0  0  0  0  0  0  0
   -1.9067   -3.5588   -1.6089 H   0  0  0  0  0  0  0  0  0  0  0  0
   -2.8871   -6.4675    0.2525 H   0  0  0  0  0  0  0  0  0  0  0  0
   -3.8533   -5.7958   -1.0736 H   0  0  0  0  0  0  0  0  0  0  0  0
   -2.0971   -5.9503   -1.2476 H   0  0  0  0  0  0  0  0  0  0  0  0
   -5.0658    0.3347   -0.8792 H   0  0  0  0  0  0  0  0  0  0  0  0
   -2.9968    4.2286    1.4557 H   0  0  0  0  0  0  0  0  0  0  0  0
   -5.4342    4.1389    1.0608 H   0  0  0  0  0  0  0  0  0  0  0  0
   -6.4423    2.2129   -0.0945 H   0  0  0  0  0  0  0  0  0  0  0  0
    1.9758    2.6524    1.4350 H   0  0  0  0  0  0  0  0  0  0  0  0
  1  2  2  0
  1  6  1  0
  1  7  1  0
  2  3  1  0
  3  4  2  0
  3  8  1  0
  4  5  1  0
  5  6  2  0
  5  9  1  0
  6 16  1  0
  7 29  1  0
  7 30  1  0
  8 31  1  0
  8 32  1  0
  9 10  1  0
  9 33  1  0
  9 34  1  0
 10 35  1  0
 10 36  1  0
 10 37  1  0
 11 12  2  0
 11 16  1  0
 11 53  1  0
 12 13  1  0
 12 38  1  0
 13 14  2  0
 13 25  1  0
 14 15  1  0
 14 17  1  0
 15 16  2  0
 15 39  1  0
 17 18  1  0
 17 24  1  0
 18 19  1  0
 18 40  1  0
 18 41  1  0
 19 20  1  0
 19 42  1  0
 19 43  1  0
 20 21  1  0
 20 44  1  0
 20 45  1  0
 21 22  1  0
 22 46  1  0
 22 47  1  0
 22 48  1  0
 23 24  1  0
 23 28  2  0
 23 49  1  0
 24 25  2  0
 25 26  1  0
 26 27  2  0
 26 50  1  0
 27 28  1  0
 27 51  1  0
 28 52  1  0
M  END
