
     RDKit          3D

 27 29  0  0  0  0  0  0  0  0999 V2000
    0.9756   -0.3761    0.0936 C   0  0  0  0  0  0  0  0  0  0  0  0
    1.7530    0.7823    0.1658 C   0  0  0  0  0  0  0  0  0  0  0  0
    3.1334    0.7117    0.2040 C   0  0  0  0  0  0  0  0  0  0  0  0
    3.7760   -0.5336    0.1720 C   0  0  0  0  0  0  0  0  0  0  0  0
    3.0053   -1.6840    0.0994 C   0  0  0  0  0  0  0  0  0  0  0  0
    1.6211   -1.6091    0.0597 C   0  0  0  0  0  0  0  0  0  0  0  0
    5.1200   -0.6424    0.2086 O   0  0  0  0  0  0  0  0  0  0  0  0
    3.9409    1.7947    0.2743 O   0  0  0  0  0  0  0  0  0  0  0  0
   -0.4823   -0.2706    0.0554 C   0  0  0  0  0  0  0  0  0  0  0  0
   -1.1075    0.9353    0.0772 N   0  0  0  0  0  0  0  0  0  0  0  0
   -2.3993    0.6756    0.0328 C   0  0  0  0  0  0  0  0  0  0  0  0
   -2.6241   -0.6903   -0.0179 N   0  0  0  0  0  0  0  0  0  0  0  0
   -1.3989   -1.2968   -0.0031 C   0  0  0  0  0  0  0  0  0  0  0  0
   -3.5121    1.5415    0.0298 C   0  0  0  0  0  0  0  0  0  0  0  0
   -4.7672    1.0101   -0.0223 C   0  0  0  0  0  0  0  0  0  0  0  0
   -4.9509   -0.3958   -0.0730 C   0  0  0  0  0  0  0  0  0  0  0  0
   -3.8773   -1.2254   -0.0698 C   0  0  0  0  0  0  0  0  0  0  0  0
    1.2655    1.7504    0.1930 H   0  0  0  0  0  0  0  0  0  0  0  0
    3.4986   -2.6477    0.0732 H   0  0  0  0  0  0  0  0  0  0  0  0
    1.0519   -2.5279    0.0008 H   0  0  0  0  0  0  0  0  0  0  0  0
    5.5285    0.2279    0.2848 H   0  0  0  0  0  0  0  0  0  0  0  0
    3.4244    2.6077    0.2959 H   0  0  0  0  0  0  0  0  0  0  0  0
   -1.2974   -2.3683   -0.0346 H   0  0  0  0  0  0  0  0  0  0  0  0
   -3.3423    2.6085    0.0681 H   0  0  0  0  0  0  0  0  0  0  0  0
   -5.6311    1.6602   -0.0259 H   0  0  0  0  0  0  0  0  0  0  0  0
   -5.9430   -0.8207   -0.1146 H   0  0  0  0  0  0  0  0  0  0  0  0
   -3.9451   -2.3024   -0.1058 H   0  0  0  0  0  0  0  0  0  0  0  0
  7  4  1  0
  8  3  1  0
  4  3  1  0
  4  5  2  0
  3  2  2  0
  5  6  1  0
  2  1  1  0
  6  1  2  0
  1  9  1  0
  9 13  2  0
  9 10  1  0
 13 12  1  0
 10 11  2  0
 12 11  1  0
 12 17  1  0
 11 14  1  0
 17 16  2  0
 14 15  2  0
 16 15  1  0
  2 18  1  0
  5 19  1  0
  6 20  1  0
  7 21  1  0
  8 22  1  0
 13 23  1  0
 14 24  1  0
 15 25  1  0
 16 26  1  0
 17 27  1  0
M  END
