
     RDKit          3D

 32 32  0  0  0  0  0  0  0  0999 V2000
   -1.0717    3.6220   -0.0494 O   0  0  0  0  0  0  0  0  0  0  0  0
   -0.4522    2.1404    0.0393 P   0  0  1  0  0  0  0  0  0  0  0  0
    0.7828    1.8823   -0.7329 O   0  0  0  0  0  0  0  0  0  0  0  0
   -0.1840    1.8524    1.6012 O   0  0  0  0  0  0  0  0  0  0  0  0
   -1.9210    1.1776   -0.4668 C   0  0  0  0  0  0  0  0  0  0  0  0
   -1.5943   -0.1771   -0.6077 O   0  0  0  0  0  0  0  0  0  0  0  0
   -1.7381   -0.9700    0.5532 C   0  0  1  0  0  0  0  0  0  0  0  0
   -3.1425   -1.5300    0.6870 C   0  0  0  0  0  0  0  0  0  0  0  0
   -3.4257   -2.3606   -0.4108 O   0  0  0  0  0  0  0  0  0  0  0  0
   -0.6889   -2.0721    0.4896 C   0  0  0  0  0  0  0  0  0  0  0  0
    0.6554   -1.5361    0.3524 N   0  0  0  0  0  0  0  0  0  0  0  0
    1.2872   -1.0474    1.4423 C   0  0  0  0  0  0  0  0  0  0  0  0
    2.5191   -0.5065    1.3705 C   0  0  0  0  0  0  0  0  0  0  0  0
    3.1073   -0.4597    0.0722 C   0  0  0  0  0  0  0  0  0  0  0  0
    4.3131    0.0922   -0.0848 N   0  0  0  0  0  0  0  0  0  0  0  0
    2.5079   -0.9565   -0.9894 N   0  0  0  0  0  0  0  0  0  0  0  0
    1.2753   -1.4985   -0.9062 C   0  0  0  0  0  0  0  0  0  0  0  0
    0.7044   -1.9789   -1.8770 O   0  0  0  0  0  0  0  0  0  0  0  0
   -0.4327    4.3366    0.0799 H   0  0  0  0  0  0  0  0  0  0  0  0
   -0.9108    2.0839    2.1943 H   0  0  0  0  0  0  0  0  0  0  0  0
   -2.7524    1.3542    0.2271 H   0  0  0  0  0  0  0  0  0  0  0  0
   -2.2404    1.5525   -1.4426 H   0  0  0  0  0  0  0  0  0  0  0  0
   -1.5593   -0.3749    1.4582 H   0  0  0  0  0  0  0  0  0  0  0  0
   -3.1980   -2.0688    1.6423 H   0  0  0  0  0  0  0  0  0  0  0  0
   -3.8519   -0.6943    0.7593 H   0  0  0  0  0  0  0  0  0  0  0  0
   -4.3077   -2.7236   -0.2923 H   0  0  0  0  0  0  0  0  0  0  0  0
   -0.7396   -2.6625    1.4060 H   0  0  0  0  0  0  0  0  0  0  0  0
   -0.8751   -2.7433   -0.3434 H   0  0  0  0  0  0  0  0  0  0  0  0
    0.7549   -1.1260    2.3804 H   0  0  0  0  0  0  0  0  0  0  0  0
    3.0147   -0.1209    2.2482 H   0  0  0  0  0  0  0  0  0  0  0  0
    4.8363    0.4476    0.6954 H   0  0  0  0  0  0  0  0  0  0  0  0
    4.7432    0.1150   -0.9932 H   0  0  0  0  0  0  0  0  0  0  0  0
  2  1  1  1
  2  3  2  0
  2  4  1  0
  2  5  1  0
  5  6  1  0
  6  7  1  0
  7  8  1  0
  7 10  1  0
  8  9  1  0
 10 11  1  0
 11 12  1  0
 11 17  1  0
 12 13  2  0
 13 14  1  0
 14 15  1  0
 14 16  2  0
 16 17  1  0
 17 18  2  0
  1 19  1  0
  4 20  1  0
  5 21  1  0
  5 22  1  0
  7 23  1  1
  8 24  1  0
  8 25  1  0
  9 26  1  0
 10 27  1  0
 10 28  1  0
 12 29  1  0
 13 30  1  0
 15 31  1  0
 15 32  1  0
M  END
