
     RDKit          3D

 57 60  0  0  0  0  0  0  0  0999 V2000
    5.4501    1.1937   -1.6764 O   0  0  0  0  0  0  0  0  0  0  0  0
    5.9199    0.7684   -0.5180 C   0  0  0  0  0  0  0  0  0  0  0  0
    6.5182    1.4560    0.2682 O   0  0  0  0  0  0  0  0  0  0  0  0
    5.5976   -0.6991   -0.2686 C   0  0  1  0  0  0  0  0  0  0  0  0
    6.7833   -1.3985    0.1686 N   0  0  0  0  0  0  0  0  0  0  0  0
    7.5651   -2.1616   -0.6522 C   0  0  0  0  0  0  0  0  0  0  0  0
    8.6391   -2.6098    0.0707 C   0  0  0  0  0  0  0  0  0  0  0  0
    8.5030   -2.0889    1.3837 C   0  0  0  0  0  0  0  0  0  0  0  0
    7.3535   -1.3423    1.4078 C   0  0  0  0  0  0  0  0  0  0  0  0
    4.4529   -0.8087    0.7513 C   0  0  0  0  0  0  0  0  0  0  0  0
    3.2100   -0.1121    0.2708 C   0  0  0  0  0  0  0  0  0  0  0  0
    2.4135   -0.6834   -0.7193 C   0  0  0  0  0  0  0  0  0  0  0  0
    1.2884   -0.0274   -1.1916 C   0  0  0  0  0  0  0  0  0  0  0  0
    0.9207    1.2214   -0.6913 C   0  0  0  0  0  0  0  0  0  0  0  0
    1.7147    1.7868    0.3008 C   0  0  0  0  0  0  0  0  0  0  0  0
    2.8435    1.1307    0.7747 C   0  0  0  0  0  0  0  0  0  0  0  0
   -0.3200    1.9115   -1.1821 C   0  0  0  0  0  0  0  0  0  0  0  0
   -1.5854    1.3857   -0.5037 C   0  0  0  0  0  0  0  0  0  0  0  0
   -2.8353    2.1254   -0.9815 C   0  0  0  0  0  0  0  0  0  0  0  0
   -4.0849    1.5924   -0.3753 C   0  0  0  0  0  0  0  0  0  0  0  0
   -4.8579    2.1155    0.6064 C   0  0  0  0  0  0  0  0  0  0  0  0
   -4.8094    3.3497    1.4171 C   0  0  0  0  0  0  0  0  0  0  0  0
   -5.8719    1.2339    0.8274 O   0  0  0  0  0  0  0  0  0  0  0  0
   -5.6684    0.2197   -0.0230 C   0  0  0  0  0  0  0  0  0  0  0  0
   -4.6209    0.3795   -0.7587 N   0  0  0  0  0  0  0  0  0  0  0  0
   -6.6084   -0.8919   -0.0299 C   0  0  0  0  0  0  0  0  0  0  0  0
   -6.4042   -1.9502   -0.9180 C   0  0  0  0  0  0  0  0  0  0  0  0
   -7.2836   -3.0194   -0.9439 C   0  0  0  0  0  0  0  0  0  0  0  0
   -8.3771   -3.0470   -0.0862 C   0  0  0  0  0  0  0  0  0  0  0  0
   -8.5845   -1.9967    0.7978 C   0  0  0  0  0  0  0  0  0  0  0  0
   -7.7076   -0.9227    0.8293 C   0  0  0  0  0  0  0  0  0  0  0  0
    5.6295    2.1409   -1.7851 H   0  0  0  0  0  0  0  0  0  0  0  0
    5.2791   -1.1641   -1.2026 H   0  0  0  0  0  0  0  0  0  0  0  0
    7.2884   -2.3300   -1.6807 H   0  0  0  0  0  0  0  0  0  0  0  0
    9.4287   -3.2446   -0.2996 H   0  0  0  0  0  0  0  0  0  0  0  0
    9.1669   -2.2485    2.2186 H   0  0  0  0  0  0  0  0  0  0  0  0
    6.9073   -0.7853    2.2143 H   0  0  0  0  0  0  0  0  0  0  0  0
    4.2601   -1.8713    0.9126 H   0  0  0  0  0  0  0  0  0  0  0  0
    4.7675   -0.3876    1.7077 H   0  0  0  0  0  0  0  0  0  0  0  0
    2.6760   -1.6529   -1.1282 H   0  0  0  0  0  0  0  0  0  0  0  0
    0.6848   -0.4917   -1.9631 H   0  0  0  0  0  0  0  0  0  0  0  0
    1.4515    2.7553    0.7102 H   0  0  0  0  0  0  0  0  0  0  0  0
    3.4453    1.5957    1.5470 H   0  0  0  0  0  0  0  0  0  0  0  0
   -0.2383    2.9874   -1.0048 H   0  0  0  0  0  0  0  0  0  0  0  0
   -0.4147    1.7793   -2.2638 H   0  0  0  0  0  0  0  0  0  0  0  0
   -1.6918    0.3158   -0.7027 H   0  0  0  0  0  0  0  0  0  0  0  0
   -1.4925    1.4937    0.5807 H   0  0  0  0  0  0  0  0  0  0  0  0
   -2.7373    3.1887   -0.7490 H   0  0  0  0  0  0  0  0  0  0  0  0
   -2.9064    2.0527   -2.0708 H   0  0  0  0  0  0  0  0  0  0  0  0
   -5.7237    3.9373    1.3187 H   0  0  0  0  0  0  0  0  0  0  0  0
   -4.6665    3.1323    2.4772 H   0  0  0  0  0  0  0  0  0  0  0  0
   -3.9778    3.9712    1.0910 H   0  0  0  0  0  0  0  0  0  0  0  0
   -5.5539   -1.9299   -1.5867 H   0  0  0  0  0  0  0  0  0  0  0  0
   -7.1153   -3.8338   -1.6363 H   0  0  0  0  0  0  0  0  0  0  0  0
   -9.0635   -3.8831   -0.1073 H   0  0  0  0  0  0  0  0  0  0  0  0
   -9.4340   -2.0111    1.4676 H   0  0  0  0  0  0  0  0  0  0  0  0
   -7.8874   -0.1149    1.5261 H   0  0  0  0  0  0  0  0  0  0  0  0
  1  2  1  0
  1 32  1  0
  2  4  1  0
  2  3  2  0
  4 10  1  0
  4  5  1  0
  4 33  1  6
  5  6  1  0
  5  9  1  0
  6  7  2  0
  6 34  1  0
  7  8  1  0
  7 35  1  0
  8  9  2  0
  8 36  1  0
  9 37  1  0
 10 11  1  0
 10 38  1  0
 10 39  1  0
 11 12  2  0
 11 16  1  0
 12 13  1  0
 12 40  1  0
 13 14  2  0
 13 41  1  0
 14 17  1  0
 14 15  1  0
 15 16  2  0
 15 42  1  0
 16 43  1  0
 17 18  1  0
 17 44  1  0
 17 45  1  0
 18 19  1  0
 18 46  1  0
 18 47  1  0
 19 20  1  0
 19 48  1  0
 19 49  1  0
 20 21  2  0
 20 25  1  0
 21 23  1  0
 21 22  1  0
 22 50  1  0
 22 51  1  0
 22 52  1  0
 23 24  1  0
 24 26  1  0
 24 25  2  0
 26 31  1  0
 26 27  2  0
 27 28  1  0
 27 53  1  0
 28 29  2  0
 28 54  1  0
 29 30  1  0
 29 55  1  0
 30 31  2  0
 30 56  1  0
 31 57  1  0
M  END
