
     RDKit          3D

 35 37  0  0  0  0  0  0  0  0999 V2000
    3.3496   -2.3351   -0.3936 Cl  0  0  0  0  0  0  0  0  0  0  0  0
    2.4311   -0.8870   -0.2468 C   0  0  0  0  0  0  0  0  0  0  0  0
    3.0241    0.3316    0.0836 C   0  0  0  0  0  0  0  0  0  0  0  0
    4.7858    0.4960    0.3174 S   0  0  1  0  0  0  0  0  0  0  0  0
    5.0300    1.8974    0.6138 O   0  0  0  0  0  0  0  0  0  0  0  0
    5.0469   -0.4464    1.6302 N   0  0  0  0  0  0  0  0  0  0  0  0
    5.4606   -0.1182   -0.8109 O   0  0  0  0  0  0  0  0  0  0  0  0
    1.0675   -0.9583   -0.4553 C   0  0  0  0  0  0  0  0  0  0  0  0
    0.2784    0.1820   -0.3281 C   0  0  0  0  0  0  0  0  0  0  0  0
    0.8695    1.3936    0.0081 C   0  0  0  0  0  0  0  0  0  0  0  0
    2.2384    1.4665    0.2074 C   0  0  0  0  0  0  0  0  0  0  0  0
   -1.1871    0.0556   -0.5697 C   0  0  0  0  0  0  0  0  0  0  0  0
   -1.6705   -0.9657   -0.9898 O   0  0  0  0  0  0  0  0  0  0  0  0
   -2.0547    1.2636   -0.2577 C   0  0  0  0  0  0  0  0  0  0  0  0
   -3.4418    0.9944   -0.4780 N   0  0  0  0  0  0  0  0  0  0  0  0
   -4.2747    0.2618    0.3302 C   0  0  0  0  0  0  0  0  0  0  0  0
   -4.0865   -0.3455    1.5661 C   0  0  0  0  0  0  0  0  0  0  0  0
   -5.1780   -1.0045    2.1045 C   0  0  0  0  0  0  0  0  0  0  0  0
   -6.4099   -1.0557    1.4342 C   0  0  0  0  0  0  0  0  0  0  0  0
   -6.5862   -0.4498    0.2035 C   0  0  0  0  0  0  0  0  0  0  0  0
   -5.4979    0.2177   -0.3573 C   0  0  0  0  0  0  0  0  0  0  0  0
   -5.3904    0.8929   -1.5525 N   0  0  0  0  0  0  0  0  0  0  0  0
   -4.1646    1.3226   -1.5817 C   0  0  0  0  0  0  0  0  0  0  0  0
    5.8723   -1.0286    1.5524 H   0  0  0  0  0  0  0  0  0  0  0  0
    5.0037    0.0525    2.5111 H   0  0  0  0  0  0  0  0  0  0  0  0
    0.6161   -1.9062   -0.7143 H   0  0  0  0  0  0  0  0  0  0  0  0
    0.2866    2.2977    0.1137 H   0  0  0  0  0  0  0  0  0  0  0  0
    2.6877    2.4148    0.4633 H   0  0  0  0  0  0  0  0  0  0  0  0
   -1.8924    1.5824    0.7752 H   0  0  0  0  0  0  0  0  0  0  0  0
   -1.7515    2.1037   -0.8866 H   0  0  0  0  0  0  0  0  0  0  0  0
   -3.1391   -0.3189    2.0890 H   0  0  0  0  0  0  0  0  0  0  0  0
   -5.0777   -1.4954    3.0635 H   0  0  0  0  0  0  0  0  0  0  0  0
   -7.2357   -1.5843    1.8919 H   0  0  0  0  0  0  0  0  0  0  0  0
   -7.5377   -0.4898   -0.3109 H   0  0  0  0  0  0  0  0  0  0  0  0
   -3.7237    1.9009   -2.3817 H   0  0  0  0  0  0  0  0  0  0  0  0
 14 15  1  0
 14 12  1  0
 10 11  2  0
 10  9  1  0
 23 15  1  0
 23 22  2  0
 15 16  1  0
 11  3  1  0
  4  6  1  1
 22 21  1  0
 16 21  1  0
 16 17  2  0
 21 20  2  0
 17 18  1  0
 12  9  1  0
 12 13  2  0
  9  8  2  0
 20 19  1  0
 18 19  2  0
  3  4  1  0
  3  2  2  0
  4  7  2  0
  4  5  2  0
  8  2  1  0
  2  1  1  0
  6 24  1  0
  6 25  1  0
  8 26  1  0
 10 27  1  0
 11 28  1  0
 14 29  1  0
 14 30  1  0
 17 31  1  0
 18 32  1  0
 19 33  1  0
 20 34  1  0
 23 35  1  0
M  END
