
     RDKit          3D

 42 45  0  0  0  0  0  0  0  0999 V2000
    0.2338    2.9882    0.2962 C   0  0  0  0  0  0  0  0  0  0  0  0
   -2.2801   -0.1568   -1.3659 C   0  0  0  0  0  0  0  0  0  0  0  0
   -2.5930   -2.5368   -1.3317 C   0  0  0  0  0  0  0  0  0  0  0  0
   -2.9281   -0.0636   -0.1446 C   0  0  0  0  0  0  0  0  0  0  0  0
   -4.5766   -2.1268    2.3439 C   0  0  0  0  0  0  0  0  0  0  0  0
   -0.8461    3.8898    0.0499 C   0  0  0  0  0  0  0  0  0  0  0  0
    4.6012   -1.7101    0.7539 C   0  0  0  0  0  0  0  0  0  0  0  0
    3.7429   -2.2198   -0.1482 N   0  0  0  0  0  0  0  0  0  0  0  0
    2.7141   -1.4034   -0.4186 N   0  0  0  0  0  0  0  0  0  0  0  0
    2.9207   -0.3348    0.3294 C   0  0  0  0  0  0  0  0  0  0  0  0
    4.0997   -0.4681    1.0968 C   0  0  0  0  0  0  0  0  0  0  0  0
    1.9856    0.7952    0.3027 C   0  0  0  0  0  0  0  0  0  0  0  0
    2.2373    1.9405    1.0875 C   0  0  0  0  0  0  0  0  0  0  0  0
    1.3835    3.0236    1.0918 C   0  0  0  0  0  0  0  0  0  0  0  0
   -0.0079    1.8377   -0.4863 C   0  0  0  0  0  0  0  0  0  0  0  0
    0.8486    0.7427   -0.4927 C   0  0  0  0  0  0  0  0  0  0  0  0
   -1.1736    2.0386   -1.1748 N   0  0  0  0  0  0  0  0  0  0  0  0
   -1.7876    1.0867   -2.0666 C   0  0  0  0  0  0  0  0  0  0  0  0
   -2.1079   -1.4029   -1.9625 C   0  0  0  0  0  0  0  0  0  0  0  0
   -3.2450   -2.4544   -0.1077 C   0  0  0  0  0  0  0  0  0  0  0  0
   -3.4128   -1.2069    0.4912 C   0  0  0  0  0  0  0  0  0  0  0  0
   -4.0276   -1.0098    1.6734 O   0  0  0  0  0  0  0  0  0  0  0  0
   -1.6714    3.2711   -0.8431 C   0  0  0  0  0  0  0  0  0  0  0  0
   -2.4576   -3.5077   -1.7904 H   0  0  0  0  0  0  0  0  0  0  0  0
   -3.0649    0.8998    0.3340 H   0  0  0  0  0  0  0  0  0  0  0  0
   -5.3389   -2.6286    1.7424 H   0  0  0  0  0  0  0  0  0  0  0  0
   -3.8100   -2.8554    2.6203 H   0  0  0  0  0  0  0  0  0  0  0  0
   -5.0404   -1.7466    3.2507 H   0  0  0  0  0  0  0  0  0  0  0  0
   -0.9915    4.8701    0.4745 H   0  0  0  0  0  0  0  0  0  0  0  0
    5.7008   -3.3609    1.1372 H   0  0  0  0  0  0  0  0  0  0  0  0
    6.1457   -2.0104    1.9882 H   0  0  0  0  0  0  0  0  0  0  0  0
    3.8067   -3.1115   -0.6125 H   0  0  0  0  0  0  0  0  0  0  0  0
    4.5326    0.2230    1.8007 H   0  0  0  0  0  0  0  0  0  0  0  0
    3.1251    1.9743    1.7059 H   0  0  0  0  0  0  0  0  0  0  0  0
    1.6051    3.8882    1.7052 H   0  0  0  0  0  0  0  0  0  0  0  0
    0.6398   -0.1327   -1.0947 H   0  0  0  0  0  0  0  0  0  0  0  0
   -1.0823    0.8157   -2.8561 H   0  0  0  0  0  0  0  0  0  0  0  0
   -2.6214    1.5905   -2.5586 H   0  0  0  0  0  0  0  0  0  0  0  0
   -1.5907   -1.4851   -2.9104 H   0  0  0  0  0  0  0  0  0  0  0  0
   -3.6051   -3.3608    0.3591 H   0  0  0  0  0  0  0  0  0  0  0  0
   -2.5942    3.6162   -1.2829 H   0  0  0  0  0  0  0  0  0  0  0  0
    5.7563   -2.3534    1.1242 N   0  0  0  0  0  0  0  0  0  0  0  0
 22  5  1  0
 22 21  1  0
 20 21  1  0
 20  3  2  0
 21  4  2  0
  3 19  1  0
  4  2  1  0
 19  2  2  0
  2 18  1  0
 23  6  2  0
 23 17  1  0
  6  1  1  0
 18 17  1  0
 17 15  1  0
  1 15  2  0
  1 14  1  0
 15 16  1  0
 14 13  2  0
 16 12  2  0
 13 12  1  0
 12 10  1  0
 11 10  1  0
 11  7  2  0
 10  9  2  0
  7 42  1  0
  7  8  1  0
  9  8  1  0
  3 24  1  0
  4 25  1  0
  5 26  1  0
  5 27  1  0
  5 28  1  0
  6 29  1  0
 42 30  1  0
 42 31  1  0
  8 32  1  0
 11 33  1  0
 13 34  1  0
 14 35  1  0
 16 36  1  0
 18 37  1  0
 18 38  1  0
 19 39  1  0
 20 40  1  0
 23 41  1  0
M  END
