
     RDKit          3D

 38 40  0  0  0  0  0  0  0  0999 V2000
    4.4439   -0.4386   -0.4399 S   0  0  1  0  0  0  0  0  0  0  0  0
    5.8363   -0.4907   -0.0452 O   0  0  0  0  0  0  0  0  0  0  0  0
    3.9553   -1.1373   -1.6082 O   0  0  0  0  0  0  0  0  0  0  0  0
    3.6405   -1.1271    0.8821 N   0  0  0  0  0  0  0  0  0  0  0  0
    3.9024    1.2354   -0.5372 C   0  0  0  0  0  0  0  0  0  0  0  0
    2.8414    1.5515   -1.3757 C   0  0  0  0  0  0  0  0  0  0  0  0
    2.3794    2.8589   -1.4019 C   0  0  0  0  0  0  0  0  0  0  0  0
    2.9796    3.8256   -0.6072 C   0  0  0  0  0  0  0  0  0  0  0  0
    4.0488    3.4942    0.2165 C   0  0  0  0  0  0  0  0  0  0  0  0
    4.5169    2.1916    0.2604 C   0  0  0  0  0  0  0  0  0  0  0  0
   -0.5113    0.9062    0.3578 C   0  0  0  0  0  0  0  0  0  0  0  0
   -1.9857    0.7083    0.1557 C   0  0  0  0  0  0  0  0  0  0  0  0
   -2.4738    0.1350   -1.0137 C   0  0  0  0  0  0  0  0  0  0  0  0
   -3.8331   -0.0858   -1.1903 C   0  0  0  0  0  0  0  0  0  0  0  0
   -4.2498    0.8485    0.9978 C   0  0  0  0  0  0  0  0  0  0  0  0
   -4.7098    0.2733   -0.1787 C   0  0  0  0  0  0  0  0  0  0  0  0
   -6.5613   -0.0187   -0.4059 Br  0  0  0  0  0  0  0  0  0  0  0  0
    2.2779   -1.0917    0.8419 N   0  0  0  0  0  0  0  0  0  0  0  0
    1.5619   -2.1879    0.4009 C   0  0  0  0  0  0  0  0  0  0  0  0
    0.0847   -0.2108    1.2226 C   0  0  2  0  0  0  0  0  0  0  0  0
    1.5691   -0.0296    1.4040 C   0  0  0  0  0  0  0  0  0  0  0  0
   -2.8889    1.0600    1.1551 C   0  0  0  0  0  0  0  0  0  0  0  0
   -0.1353   -1.8553    0.4751 S   0  0  0  0  0  0  0  0  0  0  0  0
    2.1766   -3.5957   -0.1146 S   0  0  0  0  0  0  0  0  0  0  0  0
    2.1005    0.8930    1.9525 O   0  0  0  0  0  0  0  0  0  0  0  0
    4.0262   -0.8795    1.7900 H   0  0  0  0  0  0  0  0  0  0  0  0
    2.3824    0.8039   -2.0086 H   0  0  0  0  0  0  0  0  0  0  0  0
    1.5523    3.1192   -2.0482 H   0  0  0  0  0  0  0  0  0  0  0  0
    2.6168    4.8444   -0.6333 H   0  0  0  0  0  0  0  0  0  0  0  0
    4.5190    4.2514    0.8288 H   0  0  0  0  0  0  0  0  0  0  0  0
    5.3468    1.9359    0.9055 H   0  0  0  0  0  0  0  0  0  0  0  0
    0.0026    0.9363   -0.6045 H   0  0  0  0  0  0  0  0  0  0  0  0
   -0.3183    1.8564    0.8597 H   0  0  0  0  0  0  0  0  0  0  0  0
   -1.7894   -0.1403   -1.8066 H   0  0  0  0  0  0  0  0  0  0  0  0
   -4.1903   -0.5306   -2.1091 H   0  0  0  0  0  0  0  0  0  0  0  0
   -4.9332    1.1342    1.7859 H   0  0  0  0  0  0  0  0  0  0  0  0
   -0.3822   -0.2156    2.2099 H   0  0  0  0  0  0  0  0  0  0  0  0
   -2.5319    1.5121    2.0727 H   0  0  0  0  0  0  0  0  0  0  0  0
  1  2  2  0
  1  3  2  0
  1  4  1  1
  1  5  1  0
  4 18  1  0
  4 26  1  0
  5  6  2  0
  5 10  1  0
  6  7  1  0
  6 27  1  0
  7  8  2  0
  7 28  1  0
  8  9  1  0
  8 29  1  0
  9 10  2  0
  9 30  1  0
 10 31  1  0
 11 12  1  0
 11 20  1  0
 11 32  1  0
 11 33  1  0
 12 13  2  0
 12 22  1  0
 13 14  1  0
 13 34  1  0
 14 16  2  0
 14 35  1  0
 15 16  1  0
 15 22  2  0
 15 36  1  0
 16 17  1  0
 18 19  1  0
 18 21  1  0
 19 23  1  0
 19 24  2  0
 20 21  1  0
 20 23  1  0
 20 37  1  1
 21 25  2  0
 22 38  1  0
M  END
