
     RDKit          3D

 55 58  0  0  0  0  0  0  0  0999 V2000
    0.8196    0.9285   -0.3023 C   0  0  0  0  0  0  0  0  0  0  0  0
   -0.3051    0.8957   -1.3225 C   0  0  0  0  0  0  0  0  0  0  0  0
   -1.6718    0.7543   -0.6666 C   0  0  0  0  0  0  0  0  0  0  0  0
   -2.8076    0.7325   -1.6902 C   0  0  0  0  0  0  0  0  0  0  0  0
   -4.1501    0.5738   -1.0375 C   0  0  0  0  0  0  0  0  0  0  0  0
   -4.9499    1.6799   -0.7481 C   0  0  0  0  0  0  0  0  0  0  0  0
   -6.1609    1.4917   -0.1139 C   0  0  0  0  0  0  0  0  0  0  0  0
   -6.5538    0.2019    0.2255 C   0  0  0  0  0  0  0  0  0  0  0  0
   -5.6935   -0.8560   -0.0963 C   0  0  0  0  0  0  0  0  0  0  0  0
   -6.0730   -2.2298    0.2457 C   0  0  0  0  0  0  0  0  0  0  0  0
    3.2745    0.6572   -0.3448 C   0  0  0  0  0  0  0  0  0  0  0  0
    3.4968   -0.7037   -0.1799 C   0  0  0  0  0  0  0  0  0  0  0  0
    2.5015   -1.7178   -0.6808 C   0  0  0  0  0  0  0  0  0  0  0  0
    3.1106   -3.0945   -0.9042 C   0  0  0  0  0  0  0  0  0  0  0  0
    3.8732   -3.5195    0.3396 C   0  0  0  0  0  0  0  0  0  0  0  0
    5.0481   -2.5813    0.5673 C   0  0  0  0  0  0  0  0  0  0  0  0
    4.7194   -1.1179    0.4035 C   0  0  0  0  0  0  0  0  0  0  0  0
    5.4754    1.0342    0.6218 C   0  0  0  0  0  0  0  0  0  0  0  0
    6.5060    1.9126    1.0335 C   0  0  0  0  0  0  0  0  0  0  0  0
    6.3599    3.2674    0.9172 C   0  0  0  0  0  0  0  0  0  0  0  0
    5.1696    3.8075    0.3916 C   0  0  0  0  0  0  0  0  0  0  0  0
    4.1592    2.9799   -0.0192 C   0  0  0  0  0  0  0  0  0  0  0  0
    4.2889    1.5738    0.0699 C   0  0  0  0  0  0  0  0  0  0  0  0
    2.1153    1.1160   -0.9474 N   0  0  0  0  0  0  0  0  0  0  0  0
   -5.2935   -3.1952   -0.0262 N   0  0  0  0  0  0  0  0  0  0  0  0
   -4.5307   -0.6502   -0.7105 N   0  0  0  0  0  0  0  0  0  0  0  0
    5.6642   -0.2902    0.7852 N   0  0  0  0  0  0  0  0  0  0  0  0
   -7.7156   -0.0695    0.8439 O   0  0  0  0  0  0  0  0  0  0  0  0
   -5.8047   -4.3957    0.3604 O   0  0  0  0  0  0  0  0  0  0  0  0
    0.6388    1.7282    0.4265 H   0  0  0  0  0  0  0  0  0  0  0  0
    0.8278    0.0006    0.2675 H   0  0  0  0  0  0  0  0  0  0  0  0
   -0.2801    1.8122   -1.9219 H   0  0  0  0  0  0  0  0  0  0  0  0
   -0.1373    0.0658   -2.0159 H   0  0  0  0  0  0  0  0  0  0  0  0
   -1.7052   -0.1660   -0.0748 H   0  0  0  0  0  0  0  0  0  0  0  0
   -1.8312    1.5790    0.0358 H   0  0  0  0  0  0  0  0  0  0  0  0
   -2.7873    1.6556   -2.2751 H   0  0  0  0  0  0  0  0  0  0  0  0
   -2.6488   -0.0921   -2.3893 H   0  0  0  0  0  0  0  0  0  0  0  0
   -4.6255    2.6763   -1.0179 H   0  0  0  0  0  0  0  0  0  0  0  0
   -6.7986    2.3381    0.1152 H   0  0  0  0  0  0  0  0  0  0  0  0
   -7.0297   -2.3988    0.7350 H   0  0  0  0  0  0  0  0  0  0  0  0
    1.6835   -1.8295    0.0388 H   0  0  0  0  0  0  0  0  0  0  0  0
    2.0426   -1.3413   -1.5994 H   0  0  0  0  0  0  0  0  0  0  0  0
    2.3165   -3.8058   -1.1389 H   0  0  0  0  0  0  0  0  0  0  0  0
    3.7856   -3.0781   -1.7659 H   0  0  0  0  0  0  0  0  0  0  0  0
    3.1998   -3.5000    1.2023 H   0  0  0  0  0  0  0  0  0  0  0  0
    4.2373   -4.5447    0.2505 H   0  0  0  0  0  0  0  0  0  0  0  0
    5.4843   -2.7298    1.5574 H   0  0  0  0  0  0  0  0  0  0  0  0
    5.8422   -2.8205   -0.1480 H   0  0  0  0  0  0  0  0  0  0  0  0
    7.4101    1.4812    1.4442 H   0  0  0  0  0  0  0  0  0  0  0  0
    7.1552    3.9289    1.2357 H   0  0  0  0  0  0  0  0  0  0  0  0
    5.0504    4.8805    0.3199 H   0  0  0  0  0  0  0  0  0  0  0  0
    3.2509    3.4270   -0.4024 H   0  0  0  0  0  0  0  0  0  0  0  0
    2.2002    2.0573   -1.2997 H   0  0  0  0  0  0  0  0  0  0  0  0
   -8.2152    0.7405    0.9976 H   0  0  0  0  0  0  0  0  0  0  0  0
   -5.1300   -5.0353    0.1090 H   0  0  0  0  0  0  0  0  0  0  0  0
 20 19  1  0
 20 21  2  0
 19 18  2  0
 21 22  1  0
 18 27  1  0
 18 23  1  0
 27 17  2  0
 22 23  2  0
 23 11  1  0
 17 16  1  0
 17 12  1  0
 16 15  1  0
 11 12  2  0
 11 24  1  0
 29 25  1  0
 12 13  1  0
 24  1  1  0
 15 14  1  0
 25 10  2  0
 14 13  1  0
 10  9  1  0
  1  2  1  0
  9 26  2  0
  9  8  1  0
  2  3  1  0
  3  4  1  0
 26  5  1  0
 28  8  1  0
  8  7  2  0
  5  4  1  0
  5  6  2  0
  7  6  1  0
  1 30  1  0
  1 31  1  0
  2 32  1  0
  2 33  1  0
  3 34  1  0
  3 35  1  0
  4 36  1  0
  4 37  1  0
  6 38  1  0
  7 39  1  0
 10 40  1  0
 13 41  1  0
 13 42  1  0
 14 43  1  0
 14 44  1  0
 15 45  1  0
 15 46  1  0
 16 47  1  0
 16 48  1  0
 19 49  1  0
 20 50  1  0
 21 51  1  0
 22 52  1  0
 24 53  1  0
 28 54  1  0
 29 55  1  0
M  END
