
     RDKit          3D

 56 59  0  0  0  0  0  0  0  0999 V2000
    0.0490   -0.9039   -2.2753 O   0  0  0  0  0  0  0  0  0  0  0  0
   -0.2422   -0.7935   -1.1083 C   0  0  0  0  0  0  0  0  0  0  0  0
   -0.6376    0.4834   -0.4855 C   0  0  0  0  0  0  0  0  0  0  0  0
   -1.8327    0.7080    0.1306 C   0  0  0  0  0  0  0  0  0  0  0  0
   -2.9699   -0.1548    0.4310 C   0  0  0  0  0  0  0  0  0  0  0  0
   -3.3775   -1.1385   -0.4710 C   0  0  0  0  0  0  0  0  0  0  0  0
   -4.4457   -1.9674   -0.1684 C   0  0  0  0  0  0  0  0  0  0  0  0
   -5.1271   -1.8185    1.0326 C   0  0  0  0  0  0  0  0  0  0  0  0
   -4.7390   -0.8293    1.9267 C   0  0  0  0  0  0  0  0  0  0  0  0
   -3.6694    0.0010    1.6296 C   0  0  0  0  0  0  0  0  0  0  0  0
   -1.9500    2.0029    0.4967 O   0  0  0  0  0  0  0  0  0  0  0  0
   -0.8180    2.6366    0.1080 C   0  0  0  0  0  0  0  0  0  0  0  0
   -0.5309    3.9746    0.3017 C   0  0  0  0  0  0  0  0  0  0  0  0
    0.6919    4.4097   -0.1634 C   0  0  0  0  0  0  0  0  0  0  0  0
    1.6064    3.5291   -0.7698 C   0  0  0  0  0  0  0  0  0  0  0  0
    2.7774    4.0976   -1.1390 O   0  0  0  0  0  0  0  0  0  0  0  0
    1.3176    2.1773   -0.9448 C   0  0  0  0  0  0  0  0  0  0  0  0
    2.3083    1.1756   -1.4707 C   0  0  0  0  0  0  0  0  0  0  0  0
    2.4711    0.0657   -0.5518 N   0  0  0  0  0  0  0  0  0  0  0  0
    3.0034    0.4918    0.7322 C   0  0  0  0  0  0  0  0  0  0  0  0
    3.0835   -0.6722    1.7041 C   0  0  0  0  0  0  0  0  0  0  0  0
    3.9538   -1.7945    1.1504 C   0  0  1  0  0  0  0  0  0  0  0  0
    4.0083   -2.9876    2.0929 C   0  0  0  0  0  0  0  0  0  0  0  0
    3.4322   -2.1792   -0.2291 C   0  0  0  0  0  0  0  0  0  0  0  0
    3.2987   -0.9717   -1.1444 C   0  0  0  0  0  0  0  0  0  0  0  0
    0.0502    1.7478   -0.5184 C   0  0  0  0  0  0  0  0  0  0  0  0
   -0.3479   -1.8070   -0.2673 O   0  0  0  0  0  0  0  0  0  0  0  0
   -0.2238   -3.1332   -0.8008 C   0  0  0  0  0  0  0  0  0  0  0  0
   -0.3142   -4.1033    0.3505 C   0  0  0  0  0  0  0  0  0  0  0  0
   -2.8876   -1.2404   -1.4308 H   0  0  0  0  0  0  0  0  0  0  0  0
   -4.7556   -2.7214   -0.8797 H   0  0  0  0  0  0  0  0  0  0  0  0
   -5.9621   -2.4658    1.2666 H   0  0  0  0  0  0  0  0  0  0  0  0
   -5.2675   -0.7059    2.8627 H   0  0  0  0  0  0  0  0  0  0  0  0
   -3.3706    0.7583    2.3427 H   0  0  0  0  0  0  0  0  0  0  0  0
   -1.2225    4.6483    0.7893 H   0  0  0  0  0  0  0  0  0  0  0  0
    0.9732    5.4485   -0.0482 H   0  0  0  0  0  0  0  0  0  0  0  0
    3.3266    3.4817   -1.6342 H   0  0  0  0  0  0  0  0  0  0  0  0
    1.9605    0.7799   -2.4277 H   0  0  0  0  0  0  0  0  0  0  0  0
    3.2850    1.6411   -1.6918 H   0  0  0  0  0  0  0  0  0  0  0  0
    4.0087    0.9374    0.6150 H   0  0  0  0  0  0  0  0  0  0  0  0
    2.3609    1.2717    1.1443 H   0  0  0  0  0  0  0  0  0  0  0  0
    3.4781   -0.3183    2.6603 H   0  0  0  0  0  0  0  0  0  0  0  0
    2.0735   -1.0522    1.8937 H   0  0  0  0  0  0  0  0  0  0  0  0
    4.9716   -1.3999    1.0298 H   0  0  0  0  0  0  0  0  0  0  0  0
    3.0108   -3.4059    2.2505 H   0  0  0  0  0  0  0  0  0  0  0  0
    4.6413   -3.7839    1.6969 H   0  0  0  0  0  0  0  0  0  0  0  0
    4.4043   -2.7027    3.0694 H   0  0  0  0  0  0  0  0  0  0  0  0
    4.0912   -2.9129   -0.7007 H   0  0  0  0  0  0  0  0  0  0  0  0
    2.4544   -2.6573   -0.1172 H   0  0  0  0  0  0  0  0  0  0  0  0
    2.8477   -1.2725   -2.0929 H   0  0  0  0  0  0  0  0  0  0  0  0
    4.3065   -0.5844   -1.3811 H   0  0  0  0  0  0  0  0  0  0  0  0
   -1.0244   -3.3075   -1.5244 H   0  0  0  0  0  0  0  0  0  0  0  0
    0.7273   -3.2352   -1.3263 H   0  0  0  0  0  0  0  0  0  0  0  0
    0.4963   -3.9551    1.0650 H   0  0  0  0  0  0  0  0  0  0  0  0
   -1.2634   -4.0136    0.8787 H   0  0  0  0  0  0  0  0  0  0  0  0
   -0.2389   -5.1205   -0.0325 H   0  0  0  0  0  0  0  0  0  0  0  0
 28 29  1  0
 28 27  1  0
 27  2  1  0
  2  1  2  0
  2  3  1  0
 18 19  1  0
 18 17  1  0
  7  8  1  0
  7  6  2  0
 20 21  1  0
 20 19  1  0
  8  9  2  0
  6  5  1  0
  3  4  2  0
  3 26  1  0
  9 10  1  0
  5 10  2  0
  5  4  1  0
 21 22  1  0
 19 25  1  0
  4 11  1  0
 17 26  2  0
 17 15  1  0
 26 12  1  0
 16 15  1  0
 15 14  2  0
 11 12  1  0
 12 13  2  0
 22 23  1  0
 22 24  1  0
 25 24  1  0
 14 13  1  0
  6 30  1  0
  7 31  1  0
  8 32  1  0
  9 33  1  0
 10 34  1  0
 13 35  1  0
 14 36  1  0
 16 37  1  0
 18 38  1  0
 18 39  1  0
 20 40  1  0
 20 41  1  0
 21 42  1  0
 21 43  1  0
 22 44  1  6
 23 45  1  0
 23 46  1  0
 23 47  1  0
 24 48  1  0
 24 49  1  0
 25 50  1  0
 25 51  1  0
 28 52  1  0
 28 53  1  0
 29 54  1  0
 29 55  1  0
 29 56  1  0
M  END
