
     RDKit          3D

 44 47  0  0  0  0  0  0  0  0999 V2000
   -4.9143   -0.7957    1.1827 C   0  0  0  0  0  0  0  0  0  0  0  0
   -6.4329   -0.9361    1.1894 C   0  0  0  0  0  0  0  0  0  0  0  0
   -6.9576   -1.1303   -0.2299 C   0  0  0  0  0  0  0  0  0  0  0  0
   -6.5296   -0.0931   -1.1560 N   0  0  0  0  0  0  0  0  0  0  0  0
   -5.0888    0.0740   -1.1673 C   0  0  0  0  0  0  0  0  0  0  0  0
   -4.4722    0.3146    0.2222 C   0  0  2  0  0  0  0  0  0  0  0  0
   -2.9761    0.4426    0.1417 C   0  0  0  0  0  0  0  0  0  0  0  0
   -2.1786   -0.6245   -0.2746 C   0  0  0  0  0  0  0  0  0  0  0  0
   -0.8022   -0.5073   -0.3652 C   0  0  0  0  0  0  0  0  0  0  0  0
   -2.3413    1.6365    0.4715 C   0  0  0  0  0  0  0  0  0  0  0  0
   -0.9628    1.7696    0.3993 C   0  0  0  0  0  0  0  0  0  0  0  0
   -0.1952    0.6963   -0.0286 C   0  0  0  0  0  0  0  0  0  0  0  0
    1.2101    0.8229   -0.1241 N   0  0  0  0  0  0  0  0  0  0  0  0
    1.8895    1.9472   -0.4001 C   0  0  0  0  0  0  0  0  0  0  0  0
    1.9768   -0.2511    0.0561 N   0  0  0  0  0  0  0  0  0  0  0  0
    3.2200    0.1945   -0.1086 C   0  0  0  0  0  0  0  0  0  0  0  0
    3.2299    1.5904   -0.3966 C   0  0  0  0  0  0  0  0  0  0  0  0
    4.4394    2.2856   -0.6033 C   0  0  0  0  0  0  0  0  0  0  0  0
    5.6048    1.5808   -0.4997 C   0  0  0  0  0  0  0  0  0  0  0  0
    5.6019    0.1953   -0.1901 C   0  0  0  0  0  0  0  0  0  0  0  0
    4.4458   -0.5167    0.0084 C   0  0  0  0  0  0  0  0  0  0  0  0
    4.4562   -1.9842    0.2751 C   0  0  0  0  0  0  0  0  0  0  0  0
    3.6066   -2.7251   -0.1966 O   0  0  0  0  0  0  0  0  0  0  0  0
    5.4681   -2.4216    1.0429 N   0  0  0  0  0  0  0  0  0  0  0  0
   -4.5411   -0.5874    2.1884 H   0  0  0  0  0  0  0  0  0  0  0  0
   -4.4654   -1.7464    0.8733 H   0  0  0  0  0  0  0  0  0  0  0  0
   -6.7331   -1.7771    1.8194 H   0  0  0  0  0  0  0  0  0  0  0  0
   -6.8867   -0.0389    1.6244 H   0  0  0  0  0  0  0  0  0  0  0  0
   -6.6057   -2.0942   -0.6154 H   0  0  0  0  0  0  0  0  0  0  0  0
   -8.0489   -1.1722   -0.2353 H   0  0  0  0  0  0  0  0  0  0  0  0
   -6.9648    0.7843   -0.8939 H   0  0  0  0  0  0  0  0  0  0  0  0
   -4.6447   -0.8278   -1.6052 H   0  0  0  0  0  0  0  0  0  0  0  0
   -4.8370    0.9018   -1.8343 H   0  0  0  0  0  0  0  0  0  0  0  0
   -4.8711    1.2643    0.5994 H   0  0  0  0  0  0  0  0  0  0  0  0
   -2.6328   -1.5709   -0.5414 H   0  0  0  0  0  0  0  0  0  0  0  0
   -0.2052   -1.3445   -0.6990 H   0  0  0  0  0  0  0  0  0  0  0  0
   -2.9295    2.4806    0.8099 H   0  0  0  0  0  0  0  0  0  0  0  0
   -0.5001    2.7014    0.6969 H   0  0  0  0  0  0  0  0  0  0  0  0
    1.4012    2.8861   -0.6015 H   0  0  0  0  0  0  0  0  0  0  0  0
    4.4419    3.3429   -0.8340 H   0  0  0  0  0  0  0  0  0  0  0  0
    6.5542    2.0747   -0.6561 H   0  0  0  0  0  0  0  0  0  0  0  0
    6.5583   -0.3096   -0.1347 H   0  0  0  0  0  0  0  0  0  0  0  0
    6.0622   -1.7898    1.5510 H   0  0  0  0  0  0  0  0  0  0  0  0
    5.5351   -3.4001    1.2720 H   0  0  0  0  0  0  0  0  0  0  0  0
 19 18  2  0
 19 20  1  0
 18 17  1  0
 20 21  2  0
 17 14  2  0
 17 16  1  0
 14 13  1  0
 21 16  1  0
 21 22  1  0
 16 15  2  0
 23 22  2  0
 13 15  1  0
 13 12  1  0
 22 24  1  0
  9 12  1  0
  9  8  2  0
 12 11  2  0
  8  7  1  0
 11 10  1  0
  7 10  2  0
  7  6  1  0
  6  1  1  0
  6  5  1  0
  1  2  1  0
  5  4  1  0
  4  3  1  0
  2  3  1  0
  1 25  1  0
  1 26  1  0
  2 27  1  0
  2 28  1  0
  3 29  1  0
  3 30  1  0
  4 31  1  0
  5 32  1  0
  5 33  1  0
  6 34  1  1
  8 35  1  0
  9 36  1  0
 10 37  1  0
 11 38  1  0
 14 39  1  0
 18 40  1  0
 19 41  1  0
 20 42  1  0
 24 43  1  0
 24 44  1  0
M  END
