
     RDKit          3D

 65 67  0  0  0  0  0  0  0  0999 V2000
    3.8284   -3.5876   -0.6181 C   0  0  0  0  0  0  0  0  0  0  0  0
    2.7488   -3.3728    0.4359 C   0  0  1  0  0  0  0  0  0  0  0  0
    1.3903   -3.8840   -0.0290 C   0  0  0  0  0  0  0  0  0  0  0  0
    3.1490   -4.0687    1.7316 C   0  0  0  0  0  0  0  0  0  0  0  0
    2.6697   -1.9774    0.8280 O   0  0  0  0  0  0  0  0  0  0  0  0
    2.3463   -1.0048   -0.0257 C   0  0  0  0  0  0  0  0  0  0  0  0
    2.0961   -1.1545   -1.2057 O   0  0  0  0  0  0  0  0  0  0  0  0
    2.3333    0.1834    0.6104 N   0  0  0  0  0  0  0  0  0  0  0  0
    2.0129    1.4450   -0.0258 C   0  0  2  0  0  0  0  0  0  0  0  0
    0.6330    1.4513   -0.6794 C   0  0  0  0  0  0  0  0  0  0  0  0
   -0.5981    0.7540    0.4561 S   0  0  0  0  0  0  0  0  0  0  0  0
   -2.1073    1.2554   -0.4184 C   0  0  0  0  0  0  0  0  0  0  0  0
   -3.3104    0.5768    0.2216 C   0  0  0  0  0  0  0  0  0  0  0  0
   -4.5967    1.0117   -0.4507 C   0  0  0  0  0  0  0  0  0  0  0  0
   -4.8645    2.1933   -0.6193 O   0  0  0  0  0  0  0  0  0  0  0  0
   -5.4022    0.0088   -0.8389 N   0  0  0  0  0  0  0  0  0  0  0  0
   -6.6765    0.1972   -1.4930 C   0  0  0  0  0  0  0  0  0  0  0  0
   -7.8458   -0.0399   -0.5754 C   0  0  0  0  0  0  0  0  0  0  0  0
   -8.0312    0.7040    0.5859 C   0  0  0  0  0  0  0  0  0  0  0  0
   -9.1274    0.4393    1.3884 C   0  0  0  0  0  0  0  0  0  0  0  0
  -10.0053   -0.5652    1.0026 C   0  0  0  0  0  0  0  0  0  0  0  0
   -9.8429   -1.2841   -0.1000 N   0  0  0  0  0  0  0  0  0  0  0  0
   -8.7865   -1.0209   -0.8614 C   0  0  0  0  0  0  0  0  0  0  0  0
    3.0826    1.9185   -1.0222 C   0  0  0  0  0  0  0  0  0  0  0  0
    4.4359    2.0507   -0.4058 C   0  0  0  0  0  0  0  0  0  0  0  0
    4.9131    3.1258    0.2913 C   0  0  0  0  0  0  0  0  0  0  0  0
    6.1790    2.8745    0.7417 N   0  0  0  0  0  0  0  0  0  0  0  0
    6.5598    1.6278    0.3437 C   0  0  0  0  0  0  0  0  0  0  0  0
    7.7538    0.9371    0.5507 C   0  0  0  0  0  0  0  0  0  0  0  0
    7.8590   -0.3301    0.0110 C   0  0  0  0  0  0  0  0  0  0  0  0
    6.8033   -0.9000   -0.7208 C   0  0  0  0  0  0  0  0  0  0  0  0
    5.6222   -0.2133   -0.9214 C   0  0  0  0  0  0  0  0  0  0  0  0
    5.4826    1.0719   -0.3837 C   0  0  0  0  0  0  0  0  0  0  0  0
    3.5616   -3.1579   -1.5807 H   0  0  0  0  0  0  0  0  0  0  0  0
    4.7773   -3.1577   -0.2944 H   0  0  0  0  0  0  0  0  0  0  0  0
    3.9825   -4.6578   -0.7606 H   0  0  0  0  0  0  0  0  0  0  0  0
    1.4496   -4.9594   -0.2003 H   0  0  0  0  0  0  0  0  0  0  0  0
    0.6275   -3.7127    0.7325 H   0  0  0  0  0  0  0  0  0  0  0  0
    1.0703   -3.4155   -0.9562 H   0  0  0  0  0  0  0  0  0  0  0  0
    4.1071   -3.6990    2.1010 H   0  0  0  0  0  0  0  0  0  0  0  0
    2.3983   -3.9212    2.5096 H   0  0  0  0  0  0  0  0  0  0  0  0
    3.2478   -5.1409    1.5634 H   0  0  0  0  0  0  0  0  0  0  0  0
    2.6042    0.2069    1.5790 H   0  0  0  0  0  0  0  0  0  0  0  0
    1.9874    2.1650    0.7944 H   0  0  0  0  0  0  0  0  0  0  0  0
    0.3625    2.4836   -0.9095 H   0  0  0  0  0  0  0  0  0  0  0  0
    0.6304    0.8832   -1.6092 H   0  0  0  0  0  0  0  0  0  0  0  0
   -2.2117    2.3397   -0.3800 H   0  0  0  0  0  0  0  0  0  0  0  0
   -2.0202    0.9603   -1.4662 H   0  0  0  0  0  0  0  0  0  0  0  0
   -3.1899   -0.5070    0.1865 H   0  0  0  0  0  0  0  0  0  0  0  0
   -3.3791    0.8550    1.2773 H   0  0  0  0  0  0  0  0  0  0  0  0
   -5.1193   -0.9392   -0.6495 H   0  0  0  0  0  0  0  0  0  0  0  0
   -6.7104    1.2100   -1.8933 H   0  0  0  0  0  0  0  0  0  0  0  0
   -6.7342   -0.4834   -2.3440 H   0  0  0  0  0  0  0  0  0  0  0  0
   -7.3307    1.4846    0.8577 H   0  0  0  0  0  0  0  0  0  0  0  0
   -9.3035    0.9981    2.2972 H   0  0  0  0  0  0  0  0  0  0  0  0
  -10.8723   -0.7966    1.6117 H   0  0  0  0  0  0  0  0  0  0  0  0
   -8.6755   -1.6267   -1.7563 H   0  0  0  0  0  0  0  0  0  0  0  0
    3.1163    1.2351   -1.8735 H   0  0  0  0  0  0  0  0  0  0  0  0
    2.7569    2.8850   -1.4161 H   0  0  0  0  0  0  0  0  0  0  0  0
    4.4369    4.0712    0.5018 H   0  0  0  0  0  0  0  0  0  0  0  0
    6.7405    3.5200    1.2707 H   0  0  0  0  0  0  0  0  0  0  0  0
    8.5685    1.3772    1.1119 H   0  0  0  0  0  0  0  0  0  0  0  0
    8.7721   -0.8942    0.1523 H   0  0  0  0  0  0  0  0  0  0  0  0
    6.9237   -1.8940   -1.1326 H   0  0  0  0  0  0  0  0  0  0  0  0
    4.8177   -0.6654   -1.4879 H   0  0  0  0  0  0  0  0  0  0  0  0
  1  2  1  0
  2  3  1  0
  2  4  1  0
  2  5  1  1
  5  6  1  0
  6  7  2  0
  6  8  1  0
  8  9  1  0
  9 10  1  0
  9 24  1  0
 10 11  1  0
 11 12  1  0
 12 13  1  0
 13 14  1  0
 14 15  2  0
 14 16  1  0
 16 17  1  0
 17 18  1  0
 18 19  2  0
 18 23  1  0
 19 20  1  0
 20 21  2  0
 21 22  1  0
 22 23  2  0
 24 25  1  0
 25 26  2  0
 25 33  1  0
 26 27  1  0
 27 28  1  0
 28 29  1  0
 28 33  2  0
 29 30  2  0
 30 31  1  0
 31 32  2  0
 32 33  1  0
  1 34  1  0
  1 35  1  0
  1 36  1  0
  3 37  1  0
  3 38  1  0
  3 39  1  0
  4 40  1  0
  4 41  1  0
  4 42  1  0
  8 43  1  0
  9 44  1  1
 10 45  1  0
 10 46  1  0
 12 47  1  0
 12 48  1  0
 13 49  1  0
 13 50  1  0
 16 51  1  0
 17 52  1  0
 17 53  1  0
 19 54  1  0
 20 55  1  0
 21 56  1  0
 23 57  1  0
 24 58  1  0
 24 59  1  0
 26 60  1  0
 27 61  1  0
 29 62  1  0
 30 63  1  0
 31 64  1  0
 32 65  1  0
M  END
