
     RDKit          3D

 43 46  0  0  0  0  0  0  0  0999 V2000
   -5.0015    1.0728   -0.0263 C   0  0  0  0  0  0  0  0  0  0  0  0
   -2.7216    0.9932   -0.0347 C   0  0  0  0  0  0  0  0  0  0  0  0
   -0.3858    1.1417   -0.0458 C   0  0  0  0  0  0  0  0  0  0  0  0
    0.7146    1.9903   -0.0632 C   0  0  0  0  0  0  0  0  0  0  0  0
    1.9815    1.4450   -0.0557 C   0  0  0  0  0  0  0  0  0  0  0  0
    2.1876    0.0583   -0.0310 C   0  0  0  0  0  0  0  0  0  0  0  0
    3.5786   -0.5198   -0.0231 C   0  0  2  0  0  0  0  0  0  0  0  0
    4.3587   -0.0973    1.2267 C   0  0  0  0  0  0  0  0  0  0  0  0
    5.7692   -0.6809    1.2337 C   0  0  0  0  0  0  0  0  0  0  0  0
    6.5073   -0.3358   -0.0370 C   0  0  2  0  0  0  0  0  0  0  0  0
    5.7606   -0.7326   -1.2875 C   0  0  0  0  0  0  0  0  0  0  0  0
    4.3505   -0.1480   -1.2938 C   0  0  0  0  0  0  0  0  0  0  0  0
    1.0757   -0.7608   -0.0149 C   0  0  0  0  0  0  0  0  0  0  0  0
   -0.2215   -0.2391   -0.0216 C   0  0  0  0  0  0  0  0  0  0  0  0
   -1.3992   -1.1171   -0.0029 C   0  0  0  0  0  0  0  0  0  0  0  0
   -2.6664   -0.4053   -0.0103 C   0  0  0  0  0  0  0  0  0  0  0  0
   -3.8956   -1.0601    0.0057 C   0  0  0  0  0  0  0  0  0  0  0  0
   -5.0827   -0.3608   -0.0017 C   0  0  0  0  0  0  0  0  0  0  0  0
   -6.3776   -1.0573    0.0145 C   0  0  0  0  0  0  0  0  0  0  0  0
    7.7514   -0.9140   -0.0291 F   0  0  0  0  0  0  0  0  0  0  0  0
    6.7485    1.0192   -0.0663 F   0  0  0  0  0  0  0  0  0  0  0  0
   -6.0743    1.8529   -0.0328 N   0  0  0  0  0  0  0  0  0  0  0  0
   -3.8199    1.6995   -0.0423 N   0  0  0  0  0  0  0  0  0  0  0  0
   -1.6083    1.7335   -0.0531 O   0  0  0  0  0  0  0  0  0  0  0  0
   -1.3168   -2.3351    0.0173 O   0  0  0  0  0  0  0  0  0  0  0  0
   -7.4564   -0.5017    0.0025 O   0  0  0  0  0  0  0  0  0  0  0  0
   -6.2583   -2.3760    0.0445 O   0  0  0  0  0  0  0  0  0  0  0  0
    0.5727    3.0630   -0.0816 H   0  0  0  0  0  0  0  0  0  0  0  0
    2.8290    2.1194   -0.0689 H   0  0  0  0  0  0  0  0  0  0  0  0
    3.4827   -1.6117   -0.0006 H   0  0  0  0  0  0  0  0  0  0  0  0
    4.4077    0.9934    1.2877 H   0  0  0  0  0  0  0  0  0  0  0  0
    3.8326   -0.4327    2.1221 H   0  0  0  0  0  0  0  0  0  0  0  0
    6.3294   -0.3206    2.0998 H   0  0  0  0  0  0  0  0  0  0  0  0
    5.7167   -1.7698    1.3134 H   0  0  0  0  0  0  0  0  0  0  0  0
    6.3147   -0.4073   -2.1712 H   0  0  0  0  0  0  0  0  0  0  0  0
    5.7078   -1.8239   -1.3226 H   0  0  0  0  0  0  0  0  0  0  0  0
    3.8177   -0.5171   -2.1719 H   0  0  0  0  0  0  0  0  0  0  0  0
    4.3997    0.9396   -1.3969 H   0  0  0  0  0  0  0  0  0  0  0  0
    1.1982   -1.8368    0.0036 H   0  0  0  0  0  0  0  0  0  0  0  0
   -3.8966   -2.1416    0.0238 H   0  0  0  0  0  0  0  0  0  0  0  0
   -7.0015    1.4616   -0.0284 H   0  0  0  0  0  0  0  0  0  0  0  0
   -5.9548    2.8516   -0.0542 H   0  0  0  0  0  0  0  0  0  0  0  0
   -7.1363   -2.7853    0.0542 H   0  0  0  0  0  0  0  0  0  0  0  0
 26 19  2  0
 22  1  1  0
 19 27  1  0
 19 18  1  0
  1 18  2  0
  1 23  1  0
 18 17  1  0
 23  2  2  0
 17 16  2  0
  2 16  1  0
  2 24  1  0
 16 15  1  0
 24  3  1  0
 15 25  2  0
 15 14  1  0
  3  4  1  0
  3 14  2  0
  4  5  2  0
 14 13  1  0
  5  6  1  0
 13  6  2  0
  6  7  1  0
  7  8  1  0
  7 12  1  0
  8  9  1  0
 12 11  1  0
  9 10  1  0
 11 10  1  0
 10 20  1  1
 10 21  1  0
  4 28  1  0
  5 29  1  0
  7 30  1  1
  8 31  1  0
  8 32  1  0
  9 33  1  0
  9 34  1  0
 11 35  1  0
 11 36  1  0
 12 37  1  0
 12 38  1  0
 13 39  1  0
 17 40  1  0
 22 41  1  0
 22 42  1  0
 27 43  1  0
M  END
