
     RDKit          3D

 32 34  0  0  0  0  0  0  0  0999 V2000
   -1.4313    1.1663   -4.7233 O   0  0  0  0  0  0  0  0  0  0  0  0
   -0.9861   -0.0321   -4.1387 C   0  0  0  0  0  0  0  0  0  0  0  0
    0.2796    0.2374   -3.3653 C   0  0  1  0  0  0  0  0  0  0  0  0
    0.0221    1.1416   -2.2883 O   0  0  0  0  0  0  0  0  0  0  0  0
    0.7329    0.7762   -1.1471 C   0  0  1  0  0  0  0  0  0  0  0  0
   -0.2283    0.3955   -0.1054 N   0  0  0  0  0  0  0  0  0  0  0  0
   -1.5546    0.0589   -0.2451 C   0  0  0  0  0  0  0  0  0  0  0  0
   -2.1092   -0.2666    0.8834 N   0  0  0  0  0  0  0  0  0  0  0  0
   -1.1186   -0.1466    1.8217 C   0  0  0  0  0  0  0  0  0  0  0  0
    0.0361    0.2631    1.2118 C   0  0  0  0  0  0  0  0  0  0  0  0
    1.1974    0.4640    1.8875 N   0  0  0  0  0  0  0  0  0  0  0  0
    1.1542    0.2391    3.2361 C   0  0  0  0  0  0  0  0  0  0  0  0
    0.0871   -0.1593    3.8736 N   0  0  0  0  0  0  0  0  0  0  0  0
   -1.1201   -0.3732    3.2501 C   0  0  0  0  0  0  0  0  0  0  0  0
   -2.1051   -0.7329    3.8840 O   0  0  0  0  0  0  0  0  0  0  0  0
    2.2870    0.4790    3.9108 N   0  0  0  0  0  0  0  0  0  0  0  0
    1.6397   -0.3822   -1.5422 C   0  0  0  0  0  0  0  0  0  0  0  0
    0.8741   -1.0032   -2.7069 C   0  0  2  0  0  0  0  0  0  0  0  0
    1.6518   -1.7069   -3.6318 O   0  0  0  0  0  0  0  0  0  0  0  0
   -2.2351    0.9800   -5.2166 H   0  0  0  0  0  0  0  0  0  0  0  0
   -0.7541   -0.7964   -4.8913 H   0  0  0  0  0  0  0  0  0  0  0  0
   -1.7370   -0.4684   -3.4658 H   0  0  0  0  0  0  0  0  0  0  0  0
    1.0294    0.6829   -4.0329 H   0  0  0  0  0  0  0  0  0  0  0  0
    1.2901    1.6325   -0.7590 H   0  0  0  0  0  0  0  0  0  0  0  0
   -2.0504    0.0867   -1.2017 H   0  0  0  0  0  0  0  0  0  0  0  0
    2.0274    0.8349    1.4476 H   0  0  0  0  0  0  0  0  0  0  0  0
    2.3215    0.2009    4.8765 H   0  0  0  0  0  0  0  0  0  0  0  0
    3.1686    0.5856    3.4382 H   0  0  0  0  0  0  0  0  0  0  0  0
    1.8364   -1.0739   -0.7231 H   0  0  0  0  0  0  0  0  0  0  0  0
    2.5949    0.0101   -1.8981 H   0  0  0  0  0  0  0  0  0  0  0  0
    0.0602   -1.6308   -2.3162 H   0  0  0  0  0  0  0  0  0  0  0  0
    1.8781   -2.5623   -3.2545 H   0  0  0  0  0  0  0  0  0  0  0  0
  1  2  1  0
  1 20  1  0
  2  3  1  0
  2 21  1  0
  2 22  1  0
  3  4  1  0
  3 18  1  0
  3 23  1  6
  4  5  1  0
  5  6  1  0
  5 17  1  0
  5 24  1  1
  6  7  1  0
  6 10  1  0
  7  8  2  0
  7 25  1  0
  8  9  1  0
  9 10  2  0
  9 14  1  0
 10 11  1  0
 11 12  1  0
 11 26  1  0
 12 13  2  0
 12 16  1  0
 13 14  1  0
 14 15  2  0
 16 27  1  0
 16 28  1  0
 17 18  1  0
 17 29  1  0
 17 30  1  0
 18 19  1  0
 18 31  1  1
 19 32  1  0
M  END
