
     RDKit          3D

 63 66  0  0  0  0  0  0  0  0999 V2000
    0.0467    0.6381    0.1558 N   0  0  0  0  0  0  0  0  0  0  0  0
   -0.0073   -0.6510    0.4626 C   0  0  0  0  0  0  0  0  0  0  0  0
   -1.2000   -1.2972    0.5013 N   0  0  0  0  0  0  0  0  0  0  0  0
    1.0448   -1.4331    0.7404 N   0  0  0  0  0  0  0  0  0  0  0  0
    2.2298   -0.8647    0.7279 C   0  0  0  0  0  0  0  0  0  0  0  0
    3.1325   -3.0353    1.3932 C   0  0  0  0  0  0  0  0  0  0  0  0
    3.3308   -1.6516    0.9903 N   0  0  0  0  0  0  0  0  0  0  0  0
    4.5986   -1.2643    0.5779 C   0  0  0  0  0  0  0  0  0  0  0  0
    5.5147   -2.0584    0.5050 O   0  0  0  0  0  0  0  0  0  0  0  0
    4.7497    0.0461    0.2362 N   0  0  0  0  0  0  0  0  0  0  0  0
    3.7708    1.0810    0.5392 C   0  0  0  0  0  0  0  0  0  0  0  0
    2.4072    0.4940    0.4487 C   0  0  0  0  0  0  0  0  0  0  0  0
    1.2592    1.1865    0.1525 C   0  0  0  0  0  0  0  0  0  0  0  0
   -2.4917   -0.8590    0.2026 C   0  0  0  0  0  0  0  0  0  0  0  0
   -3.4656   -1.8492    0.0257 C   0  0  0  0  0  0  0  0  0  0  0  0
   -4.7755   -1.5245   -0.2566 C   0  0  0  0  0  0  0  0  0  0  0  0
   -5.1643   -0.1894   -0.3804 C   0  0  0  0  0  0  0  0  0  0  0  0
   -6.4597    0.0333   -0.6805 O   0  0  0  0  0  0  0  0  0  0  0  0
   -4.2067    0.8002   -0.1955 C   0  0  0  0  0  0  0  0  0  0  0  0
   -2.8853    0.4709    0.0942 C   0  0  0  0  0  0  0  0  0  0  0  0
   -6.9187    1.3702   -0.7813 C   0  0  0  0  0  0  0  0  0  0  0  0
   -8.3813    1.3923   -1.1768 C   0  0  0  0  0  0  0  0  0  0  0  0
   -9.3233    1.1937   -0.0905 N   0  0  0  0  0  0  0  0  0  0  0  0
  -10.6637    1.5799   -0.5088 C   0  0  0  0  0  0  0  0  0  0  0  0
  -11.6816    1.5925    0.6193 C   0  0  0  0  0  0  0  0  0  0  0  0
   -9.2601   -0.1138    0.5484 C   0  0  0  0  0  0  0  0  0  0  0  0
   -9.6010   -1.3212   -0.3228 C   0  0  0  0  0  0  0  0  0  0  0  0
    6.0195    0.4572   -0.2068 C   0  0  0  0  0  0  0  0  0  0  0  0
    6.2725    0.6154   -1.5664 C   0  0  0  0  0  0  0  0  0  0  0  0
    5.0154    0.2551   -2.6888 Cl  0  0  0  0  0  0  0  0  0  0  0  0
    7.5027    1.0548   -2.0274 C   0  0  0  0  0  0  0  0  0  0  0  0
    8.5013    1.3409   -1.1102 C   0  0  0  0  0  0  0  0  0  0  0  0
    8.2812    1.1955    0.2509 C   0  0  0  0  0  0  0  0  0  0  0  0
    7.0427    0.7574    0.6884 C   0  0  0  0  0  0  0  0  0  0  0  0
    6.7466    0.5757    2.3774 Cl  0  0  0  0  0  0  0  0  0  0  0  0
   -1.1117   -2.2837    0.6898 H   0  0  0  0  0  0  0  0  0  0  0  0
    2.8465   -3.6653    0.5509 H   0  0  0  0  0  0  0  0  0  0  0  0
    4.0500   -3.4174    1.8255 H   0  0  0  0  0  0  0  0  0  0  0  0
    2.3488   -3.0806    2.1431 H   0  0  0  0  0  0  0  0  0  0  0  0
    3.9598    1.4989    1.5343 H   0  0  0  0  0  0  0  0  0  0  0  0
    3.8880    1.8917   -0.1804 H   0  0  0  0  0  0  0  0  0  0  0  0
    1.3087    2.2428   -0.0921 H   0  0  0  0  0  0  0  0  0  0  0  0
   -3.1912   -2.8945    0.1093 H   0  0  0  0  0  0  0  0  0  0  0  0
   -5.5085   -2.3102   -0.3904 H   0  0  0  0  0  0  0  0  0  0  0  0
   -4.4581    1.8493   -0.2728 H   0  0  0  0  0  0  0  0  0  0  0  0
   -2.1689    1.2648    0.2248 H   0  0  0  0  0  0  0  0  0  0  0  0
   -6.7781    1.9061    0.1648 H   0  0  0  0  0  0  0  0  0  0  0  0
   -6.3468    1.8995   -1.5520 H   0  0  0  0  0  0  0  0  0  0  0  0
   -8.5647    2.3924   -1.5782 H   0  0  0  0  0  0  0  0  0  0  0  0
   -8.5292    0.7020   -2.0226 H   0  0  0  0  0  0  0  0  0  0  0  0
  -10.5933    2.5919   -0.9166 H   0  0  0  0  0  0  0  0  0  0  0  0
  -11.0454    0.9539   -1.3316 H   0  0  0  0  0  0  0  0  0  0  0  0
  -12.6040    2.0595    0.2739 H   0  0  0  0  0  0  0  0  0  0  0  0
  -11.9389    0.5929    0.9694 H   0  0  0  0  0  0  0  0  0  0  0  0
  -11.3147    2.1662    1.4717 H   0  0  0  0  0  0  0  0  0  0  0  0
   -8.2637   -0.2468    0.9698 H   0  0  0  0  0  0  0  0  0  0  0  0
   -9.9336   -0.0981    1.4077 H   0  0  0  0  0  0  0  0  0  0  0  0
   -8.9020   -1.4395   -1.1505 H   0  0  0  0  0  0  0  0  0  0  0  0
   -9.5548   -2.2321    0.2757 H   0  0  0  0  0  0  0  0  0  0  0  0
  -10.6076   -1.2574   -0.7396 H   0  0  0  0  0  0  0  0  0  0  0  0
    7.6788    1.1694   -3.0875 H   0  0  0  0  0  0  0  0  0  0  0  0
    9.4644    1.6849   -1.4608 H   0  0  0  0  0  0  0  0  0  0  0  0
    9.0625    1.4212    0.9628 H   0  0  0  0  0  0  0  0  0  0  0  0
  1  2  2  0
  1 13  1  0
  2  3  1  0
  2  4  1  0
  3 14  1  0
  4  5  2  0
  5  7  1  0
  5 12  1  0
  6  7  1  0
  7  8  1  0
  8  9  2  0
  8 10  1  0
 10 11  1  0
 10 28  1  0
 11 12  1  0
 12 13  2  0
 14 15  2  0
 14 20  1  0
 15 16  1  0
 16 17  2  0
 17 18  1  0
 17 19  1  0
 18 21  1  0
 19 20  2  0
 21 22  1  0
 22 23  1  0
 23 24  1  0
 23 26  1  0
 24 25  1  0
 26 27  1  0
 28 29  2  0
 28 34  1  0
 29 30  1  0
 29 31  1  0
 31 32  2  0
 32 33  1  0
 33 34  2  0
 34 35  1  0
  3 36  1  0
  6 37  1  0
  6 38  1  0
  6 39  1  0
 11 40  1  0
 11 41  1  0
 13 42  1  0
 15 43  1  0
 16 44  1  0
 19 45  1  0
 20 46  1  0
 21 47  1  0
 21 48  1  0
 22 49  1  0
 22 50  1  0
 24 51  1  0
 24 52  1  0
 25 53  1  0
 25 54  1  0
 25 55  1  0
 26 56  1  0
 26 57  1  0
 27 58  1  0
 27 59  1  0
 27 60  1  0
 31 61  1  0
 32 62  1  0
 33 63  1  0
M  END
