
     RDKit          3D

 51 54  0  0  0  0  0  0  0  0999 V2000
    4.2993   -0.0501    0.0355 C   0  0  0  0  0  0  0  0  0  0  0  0
   -7.2695    2.5814    0.1855 Cl  0  0  0  0  0  0  0  0  0  0  0  0
    4.5634    1.3397   -0.0639 C   0  0  0  0  0  0  0  0  0  0  0  0
    3.8453    2.5694   -0.2320 C   0  0  0  0  0  0  0  0  0  0  0  0
    4.7771    3.5613   -0.2974 C   0  0  0  0  0  0  0  0  0  0  0  0
   -2.1330   -2.7807    2.3270 N   0  0  0  0  0  0  0  0  0  0  0  0
    6.0293    3.0215   -0.1852 N   0  0  0  0  0  0  0  0  0  0  0  0
    5.9291    1.6791   -0.0574 C   0  0  0  0  0  0  0  0  0  0  0  0
    5.3333   -0.8931    0.0868 N   0  0  0  0  0  0  0  0  0  0  0  0
    6.5754   -0.4212    0.0723 C   0  0  0  0  0  0  0  0  0  0  0  0
    6.9601    0.8351    0.0188 N   0  0  0  0  0  0  0  0  0  0  0  0
    3.0577   -0.5967    0.0478 N   0  0  0  0  0  0  0  0  0  0  0  0
    2.8731   -2.0355    0.0024 C   0  0  0  0  0  0  0  0  0  0  0  0
    1.6579   -2.3794   -0.8433 C   0  0  0  0  0  0  0  0  0  0  0  0
    0.4750   -1.6826   -0.3669 N   0  0  0  0  0  0  0  0  0  0  0  0
    0.6690   -0.2463   -0.3109 C   0  0  0  0  0  0  0  0  0  0  0  0
    1.8812    0.0887    0.5416 C   0  0  0  0  0  0  0  0  0  0  0  0
   -0.6944   -2.3493   -0.2069 C   0  0  0  0  0  0  0  0  0  0  0  0
   -0.7821   -3.5463   -0.4428 O   0  0  0  0  0  0  0  0  0  0  0  0
   -1.9271   -1.5635    0.2221 C   0  0  1  0  0  0  0  0  0  0  0  0
   -2.6393   -1.0652   -1.0513 C   0  0  0  0  0  0  0  0  0  0  0  0
   -2.8257   -2.4238    1.0986 C   0  0  0  0  0  0  0  0  0  0  0  0
   -3.8007   -0.1568   -0.7604 C   0  0  0  0  0  0  0  0  0  0  0  0
   -3.5839    1.1465   -0.3185 C   0  0  0  0  0  0  0  0  0  0  0  0
   -4.6404    1.9940   -0.0241 C   0  0  0  0  0  0  0  0  0  0  0  0
   -5.9380    1.5302   -0.1784 C   0  0  0  0  0  0  0  0  0  0  0  0
   -6.1865    0.2424   -0.6227 C   0  0  0  0  0  0  0  0  0  0  0  0
   -5.1140   -0.5906   -0.9098 C   0  0  0  0  0  0  0  0  0  0  0  0
    2.7847    2.7316   -0.3177 H   0  0  0  0  0  0  0  0  0  0  0  0
    4.6440    4.6232   -0.4206 H   0  0  0  0  0  0  0  0  0  0  0  0
   -2.0737   -1.9661    2.9258 H   0  0  0  0  0  0  0  0  0  0  0  0
   -2.6864   -3.4546    2.8401 H   0  0  0  0  0  0  0  0  0  0  0  0
    7.3611   -1.1682    0.1191 H   0  0  0  0  0  0  0  0  0  0  0  0
    3.7520   -2.5045   -0.4294 H   0  0  0  0  0  0  0  0  0  0  0  0
    2.7456   -2.4355    1.0158 H   0  0  0  0  0  0  0  0  0  0  0  0
    1.8487   -2.1023   -1.8860 H   0  0  0  0  0  0  0  0  0  0  0  0
    1.4902   -3.4517   -0.8076 H   0  0  0  0  0  0  0  0  0  0  0  0
    0.8191    0.1414   -1.3245 H   0  0  0  0  0  0  0  0  0  0  0  0
   -0.1964    0.2602    0.1044 H   0  0  0  0  0  0  0  0  0  0  0  0
    1.6888   -0.2197    1.5768 H   0  0  0  0  0  0  0  0  0  0  0  0
    2.0212    1.1622    0.5512 H   0  0  0  0  0  0  0  0  0  0  0  0
   -1.6424   -0.6920    0.8172 H   0  0  0  0  0  0  0  0  0  0  0  0
   -1.9205   -0.5329   -1.6813 H   0  0  0  0  0  0  0  0  0  0  0  0
   -2.9779   -1.9281   -1.6302 H   0  0  0  0  0  0  0  0  0  0  0  0
   -3.0921   -3.3370    0.5642 H   0  0  0  0  0  0  0  0  0  0  0  0
   -3.7629   -1.8806    1.2731 H   0  0  0  0  0  0  0  0  0  0  0  0
   -2.5721    1.5180   -0.2046 H   0  0  0  0  0  0  0  0  0  0  0  0
   -4.4518    3.0030    0.3166 H   0  0  0  0  0  0  0  0  0  0  0  0
   -7.2006   -0.1123   -0.7464 H   0  0  0  0  0  0  0  0  0  0  0  0
   -5.3134   -1.5971   -1.2568 H   0  0  0  0  0  0  0  0  0  0  0  0
    6.8943    3.5359   -0.2226 H   0  0  0  0  0  0  0  0  0  0  0  0
  3  1  2  0
  9  1  1  0
  1 12  1  0
  2 26  1  0
  8  3  1  0
  4  3  1  0
  5  4  2  0
  4 29  1  0
  7  5  1  0
  5 30  1  0
  6 22  1  0
  6 31  1  0
  6 32  1  0
  7  8  1  0
 11  8  2  0
 10  9  2  0
 11 10  1  0
 10 33  1  0
 12 13  1  0
 12 17  1  0
 13 14  1  0
 13 34  1  0
 13 35  1  0
 14 15  1  0
 14 36  1  0
 14 37  1  0
 16 15  1  0
 15 18  1  0
 17 16  1  0
 16 38  1  0
 16 39  1  0
 17 40  1  0
 17 41  1  0
 18 19  2  0
 18 20  1  0
 20 21  1  0
 20 22  1  0
 20 42  1  1
 23 21  1  0
 21 43  1  0
 21 44  1  0
 22 45  1  0
 22 46  1  0
 24 23  2  0
 28 23  1  0
 25 24  1  0
 24 47  1  0
 26 25  2  0
 25 48  1  0
 26 27  1  0
 27 28  2  0
 27 49  1  0
 28 50  1  0
  7 51  1  0
M  END
