
     RDKit          3D

 54 55  0  0  0  0  0  0  0  0999 V2000
    5.9139    0.7213   -1.3445 O   0  0  0  0  0  0  0  0  0  0  0  0
    6.0294    0.3753   -0.0690 C   0  0  0  0  0  0  0  0  0  0  0  0
    6.4878    1.1098    0.7728 O   0  0  0  0  0  0  0  0  0  0  0  0
    5.5279   -1.0203    0.2168 C   0  0  1  0  0  0  0  0  0  0  0  0
    6.6521   -1.8798    0.8005 C   0  0  0  0  0  0  0  0  0  0  0  0
    7.8418   -2.0790   -0.1318 C   0  0  0  0  0  0  0  0  0  0  0  0
    8.8915   -3.0005    0.4740 C   0  0  0  0  0  0  0  0  0  0  0  0
    4.3465   -0.9390    1.1980 C   0  0  0  0  0  0  0  0  0  0  0  0
    3.2315   -0.0501    0.7241 C   0  0  0  0  0  0  0  0  0  0  0  0
    3.0529    1.2236    1.2411 C   0  0  0  0  0  0  0  0  0  0  0  0
    2.0343    2.0560    0.7887 C   0  0  0  0  0  0  0  0  0  0  0  0
    1.1686    1.6165   -0.2052 C   0  0  0  0  0  0  0  0  0  0  0  0
    0.1600    2.3477   -0.7108 O   0  0  0  0  0  0  0  0  0  0  0  0
   -0.0905    3.6298   -0.1751 C   0  0  0  0  0  0  0  0  0  0  0  0
    2.3484   -0.4742   -0.2700 C   0  0  0  0  0  0  0  0  0  0  0  0
    1.3239    0.3281   -0.7425 C   0  0  0  0  0  0  0  0  0  0  0  0
    0.3746   -0.1804   -1.7941 C   0  0  0  0  0  0  0  0  0  0  0  0
   -0.9674   -0.3332   -1.2718 N   0  0  0  0  0  0  0  0  0  0  0  0
   -2.0429    0.3116   -1.7493 C   0  0  0  0  0  0  0  0  0  0  0  0
   -2.0298    1.0385   -2.7309 O   0  0  0  0  0  0  0  0  0  0  0  0
   -3.3144    0.0856   -0.9872 C   0  0  0  0  0  0  0  0  0  0  0  0
   -3.6003   -1.1137   -0.3408 C   0  0  0  0  0  0  0  0  0  0  0  0
   -4.7996   -1.2817    0.3311 C   0  0  0  0  0  0  0  0  0  0  0  0
   -4.2560    1.1092   -0.9633 C   0  0  0  0  0  0  0  0  0  0  0  0
   -5.4494    0.9535   -0.2783 C   0  0  0  0  0  0  0  0  0  0  0  0
   -5.7244   -0.2454    0.3680 C   0  0  0  0  0  0  0  0  0  0  0  0
   -6.9921   -0.4209    1.1450 C   0  0  1  0  0  0  0  0  0  0  0  0
   -6.7967   -0.2063    2.4550 F   0  0  0  0  0  0  0  0  0  0  0  0
   -7.9518    0.4222    0.7533 F   0  0  0  0  0  0  0  0  0  0  0  0
   -7.4832   -1.6605    1.0303 F   0  0  0  0  0  0  0  0  0  0  0  0
    6.2391    1.6259   -1.4716 H   0  0  0  0  0  0  0  0  0  0  0  0
    5.1835   -1.4729   -0.7172 H   0  0  0  0  0  0  0  0  0  0  0  0
    6.9876   -1.4382    1.7442 H   0  0  0  0  0  0  0  0  0  0  0  0
    6.2281   -2.8566    1.0527 H   0  0  0  0  0  0  0  0  0  0  0  0
    7.4943   -2.4924   -1.0832 H   0  0  0  0  0  0  0  0  0  0  0  0
    8.3040   -1.1154   -0.3669 H   0  0  0  0  0  0  0  0  0  0  0  0
    9.2705   -2.5987    1.4155 H   0  0  0  0  0  0  0  0  0  0  0  0
    8.4750   -3.9879    0.6810 H   0  0  0  0  0  0  0  0  0  0  0  0
    9.7414   -3.1323   -0.1960 H   0  0  0  0  0  0  0  0  0  0  0  0
    3.9775   -1.9560    1.3516 H   0  0  0  0  0  0  0  0  0  0  0  0
    4.7128   -0.5906    2.1664 H   0  0  0  0  0  0  0  0  0  0  0  0
    3.7129    1.5863    2.0201 H   0  0  0  0  0  0  0  0  0  0  0  0
    1.9348    3.0418    1.2224 H   0  0  0  0  0  0  0  0  0  0  0  0
   -0.3339    3.5867    0.8897 H   0  0  0  0  0  0  0  0  0  0  0  0
    0.7560    4.3074   -0.3151 H   0  0  0  0  0  0  0  0  0  0  0  0
   -0.9472    4.0253   -0.7148 H   0  0  0  0  0  0  0  0  0  0  0  0
    2.4570   -1.4716   -0.6847 H   0  0  0  0  0  0  0  0  0  0  0  0
    0.3299    0.4933   -2.6485 H   0  0  0  0  0  0  0  0  0  0  0  0
    0.7309   -1.1443   -2.1642 H   0  0  0  0  0  0  0  0  0  0  0  0
   -1.0523   -0.8406   -0.4058 H   0  0  0  0  0  0  0  0  0  0  0  0
   -2.9078   -1.9446   -0.3728 H   0  0  0  0  0  0  0  0  0  0  0  0
   -5.0030   -2.2284    0.8135 H   0  0  0  0  0  0  0  0  0  0  0  0
   -4.0552    2.0402   -1.4755 H   0  0  0  0  0  0  0  0  0  0  0  0
   -6.1559    1.7717   -0.2635 H   0  0  0  0  0  0  0  0  0  0  0  0
  3  2  2  0
  1  2  1  0
  2  4  1  0
  4  5  1  0
  4  8  1  0
  7  6  1  0
  6  5  1  0
  8  9  1  0
 10  9  2  0
 10 11  1  0
  9 15  1  0
 11 12  2  0
 15 16  2  0
 12 16  1  0
 12 13  1  0
 16 17  1  0
 14 13  1  0
 17 18  1  0
 18 19  1  0
 19 20  2  0
 19 21  1  0
 22 21  2  0
 22 23  1  0
 21 24  1  0
 23 26  2  0
 27 30  1  1
 24 25  2  0
 26 25  1  0
 26 27  1  0
 27 28  1  0
 27 29  1  0
  1 31  1  0
  4 32  1  6
  5 33  1  0
  5 34  1  0
  6 35  1  0
  6 36  1  0
  7 37  1  0
  7 38  1  0
  7 39  1  0
  8 40  1  0
  8 41  1  0
 10 42  1  0
 11 43  1  0
 14 44  1  0
 14 45  1  0
 14 46  1  0
 15 47  1  0
 17 48  1  0
 17 49  1  0
 18 50  1  0
 22 51  1  0
 23 52  1  0
 24 53  1  0
 25 54  1  0
M  END
