
     RDKit          3D

 37 38  0  0  0  0  0  0  0  0999 V2000
   -0.0245   -1.2586   -0.1283 C   0  0  0  0  0  0  0  0  0  0  0  0
   -0.9539   -0.2047   -0.0695 C   0  0  0  0  0  0  0  0  0  0  0  0
    0.7031    1.4044   -0.2941 C   0  0  0  0  0  0  0  0  0  0  0  0
   -0.6023    1.0506   -0.1624 N   0  0  0  0  0  0  0  0  0  0  0  0
   -0.1884   -2.7417    0.0093 C   0  0  0  0  0  0  0  0  0  0  0  0
    1.1916   -3.2691   -0.4320 C   0  0  0  0  0  0  0  0  0  0  0  0
    2.1817   -2.1022   -0.2613 C   0  0  0  0  0  0  0  0  0  0  0  0
    1.0591    2.5719   -0.3592 O   0  0  0  0  0  0  0  0  0  0  0  0
    1.6636    0.3828   -0.3557 N   0  0  0  0  0  0  0  0  0  0  0  0
    3.0743    0.7544   -0.4343 C   0  0  0  0  0  0  0  0  0  0  0  0
    3.6736    1.0622    0.9314 C   0  0  0  0  0  0  0  0  0  0  0  0
    5.1478    1.4211    0.8131 C   0  0  0  0  0  0  0  0  0  0  0  0
   -2.6272   -0.6449    0.1522 S   0  0  0  0  0  0  0  0  0  0  0  0
    1.2832   -0.9061   -0.2678 C   0  0  0  0  0  0  0  0  0  0  0  0
   -0.4144   -3.0126    1.0447 H   0  0  0  0  0  0  0  0  0  0  0  0
   -0.9942   -3.1446   -0.6069 H   0  0  0  0  0  0  0  0  0  0  0  0
    1.5002   -4.1506    0.1268 H   0  0  0  0  0  0  0  0  0  0  0  0
    1.1518   -3.5484   -1.4851 H   0  0  0  0  0  0  0  0  0  0  0  0
    2.7230   -2.1467    0.6890 H   0  0  0  0  0  0  0  0  0  0  0  0
    2.9326   -2.0787   -1.0514 H   0  0  0  0  0  0  0  0  0  0  0  0
    3.6146   -0.0638   -0.9079 H   0  0  0  0  0  0  0  0  0  0  0  0
    3.1624    1.6155   -1.0938 H   0  0  0  0  0  0  0  0  0  0  0  0
    3.1230    1.8845    1.3923 H   0  0  0  0  0  0  0  0  0  0  0  0
    3.5547    0.1943    1.5853 H   0  0  0  0  0  0  0  0  0  0  0  0
    5.5703    1.6654    1.7872 H   0  0  0  0  0  0  0  0  0  0  0  0
    5.7259    0.5922    0.4007 H   0  0  0  0  0  0  0  0  0  0  0  0
    5.2953    2.2844    0.1622 H   0  0  0  0  0  0  0  0  0  0  0  0
   -3.5050    0.9596    0.1534 C   0  0  1  0  0  0  0  0  0  0  0  0
   -3.6805    1.4914   -1.2583 C   0  0  0  0  0  0  0  0  0  0  0  0
   -4.8365    0.7322    0.8546 C   0  0  0  0  0  0  0  0  0  0  0  0
   -2.8905    1.6452    0.7373 H   0  0  0  0  0  0  0  0  0  0  0  0
   -4.1905    2.4566   -1.2241 H   0  0  0  0  0  0  0  0  0  0  0  0
   -2.7213    1.6373   -1.7520 H   0  0  0  0  0  0  0  0  0  0  0  0
   -4.2842    0.8121   -1.8613 H   0  0  0  0  0  0  0  0  0  0  0  0
   -4.7025    0.3958    1.8823 H   0  0  0  0  0  0  0  0  0  0  0  0
   -5.3946    1.6689    0.8770 H   0  0  0  0  0  0  0  0  0  0  0  0
   -5.4481   -0.0032    0.3288 H   0  0  0  0  0  0  0  0  0  0  0  0
  5  6  1  0
  5  1  1  0
 13  2  1  0
  6  7  1  0
  1  2  1  0
  1 14  2  0
  2  4  2  0
  7 14  1  0
 14  9  1  0
  4  3  1  0
  9  3  1  0
  9 10  1  0
  3  8  2  0
 11 10  1  0
 11 12  1  0
  5 15  1  0
  5 16  1  0
  6 17  1  0
  6 18  1  0
  7 19  1  0
  7 20  1  0
 10 21  1  0
 10 22  1  0
 11 23  1  0
 11 24  1  0
 12 25  1  0
 12 26  1  0
 12 27  1  0
 13 28  1  0
 28 29  1  0
 28 30  1  0
 28 31  1  1
 29 32  1  0
 29 33  1  0
 29 34  1  0
 30 35  1  0
 30 36  1  0
 30 37  1  0
M  END
