
     RDKit          3D

 32 33  0  0  0  0  0  0  0  0999 V2000
   -3.0994   -3.4078   -0.6033 Cl  0  0  0  0  0  0  0  0  0  0  0  0
   -1.7973   -2.2974   -0.4321 C   0  0  0  0  0  0  0  0  0  0  0  0
   -0.7549   -2.3182   -1.3458 C   0  0  0  0  0  0  0  0  0  0  0  0
   -1.7779   -1.3836    0.6168 C   0  0  0  0  0  0  0  0  0  0  0  0
   -3.0579   -1.3465    1.7681 Cl  0  0  0  0  0  0  0  0  0  0  0  0
   -0.7280   -0.4893    0.7434 C   0  0  0  0  0  0  0  0  0  0  0  0
    0.3210   -0.5121   -0.1678 C   0  0  0  0  0  0  0  0  0  0  0  0
    0.3015   -1.4343   -1.2094 C   0  0  0  0  0  0  0  0  0  0  0  0
    1.4648    0.4220   -0.0339 C   0  0  0  0  0  0  0  0  0  0  0  0
    1.3619    1.6930   -0.0299 N   0  0  0  0  0  0  0  0  0  0  0  0
    0.0911    2.1393   -0.2123 O   0  0  0  0  0  0  0  0  0  0  0  0
    0.0737    3.5420   -0.1138 C   0  0  0  0  0  0  0  0  0  0  0  0
   -1.3480    3.9953   -0.3254 C   0  0  0  0  0  0  0  0  0  0  0  0
   -2.2808    3.2698   -0.5387 O   0  0  0  0  0  0  0  0  0  0  0  0
   -1.4233    5.3159   -0.2414 O   0  0  0  0  0  0  0  0  0  0  0  0
    2.8269   -0.1322    0.0968 C   0  0  0  0  0  0  0  0  0  0  0  0
    3.9417    0.6056   -0.3089 C   0  0  0  0  0  0  0  0  0  0  0  0
    5.2175    0.0891   -0.1556 C   0  0  0  0  0  0  0  0  0  0  0  0
    5.4012   -1.1705    0.4033 C   0  0  0  0  0  0  0  0  0  0  0  0
    4.2991   -1.9111    0.8061 C   0  0  0  0  0  0  0  0  0  0  0  0
    3.0191   -1.3980    0.6506 C   0  0  0  0  0  0  0  0  0  0  0  0
   -0.7684   -3.0281   -2.1611 H   0  0  0  0  0  0  0  0  0  0  0  0
   -0.7286    0.2093    1.5686 H   0  0  0  0  0  0  0  0  0  0  0  0
    1.1123   -1.4664   -1.9249 H   0  0  0  0  0  0  0  0  0  0  0  0
    0.4177    3.8836    0.8687 H   0  0  0  0  0  0  0  0  0  0  0  0
    0.7185    4.0078   -0.8675 H   0  0  0  0  0  0  0  0  0  0  0  0
   -2.3363    5.6098   -0.3806 H   0  0  0  0  0  0  0  0  0  0  0  0
    3.8060    1.5807   -0.7572 H   0  0  0  0  0  0  0  0  0  0  0  0
    6.0725    0.6682   -0.4795 H   0  0  0  0  0  0  0  0  0  0  0  0
    6.3987   -1.5732    0.5199 H   0  0  0  0  0  0  0  0  0  0  0  0
    4.4340   -2.8906    1.2453 H   0  0  0  0  0  0  0  0  0  0  0  0
    2.1695   -1.9851    0.9754 H   0  0  0  0  0  0  0  0  0  0  0  0
  1  2  1  0
  5  4  1  0
  2  4  2  0
  2  3  1  0
  4  6  1  0
  3  8  2  0
  6  7  2  0
  8  7  1  0
  7  9  1  0
  9 16  1  0
  9 10  2  0
 21 16  1  0
 21 20  2  0
 16 17  2  0
 10 11  1  0
 20 19  1  0
 11 12  1  0
 17 18  1  0
 12 13  1  0
 19 18  2  0
 14 13  2  0
 13 15  1  0
  3 22  1  0
  6 23  1  0
  8 24  1  0
 12 25  1  0
 12 26  1  0
 15 27  1  0
 17 28  1  0
 18 29  1  0
 19 30  1  0
 20 31  1  0
 21 32  1  0
M  END
