
     RDKit          3D

 60 64  0  0  0  0  0  0  0  0999 V2000
   -2.6034    2.2238    0.1511 C   0  0  0  0  0  0  0  0  0  0  0  0
   -1.2238    2.4069    0.0291 C   0  0  0  0  0  0  0  0  0  0  0  0
   -0.8175    3.6901   -0.4080 C   0  0  0  0  0  0  0  0  0  0  0  0
   -1.7509    4.6269   -0.5927 N   0  0  0  0  0  0  0  0  0  0  0  0
   -3.5441    3.1512   -0.0446 N   0  0  0  0  0  0  0  0  0  0  0  0
   -3.0300    4.3116   -0.3963 C   0  0  0  0  0  0  0  0  0  0  0  0
    6.6631   -0.5359   -1.8669 C   0  0  0  0  0  0  0  0  0  0  0  0
    8.8896   -1.4206    0.8035 C   0  0  0  0  0  0  0  0  0  0  0  0
    1.6990    1.4753    1.0340 C   0  0  0  0  0  0  0  0  0  0  0  0
    3.0231    1.0646    1.0877 C   0  0  0  0  0  0  0  0  0  0  0  0
    8.6050   -1.3894   -0.5324 C   0  0  0  0  0  0  0  0  0  0  0  0
    1.1234   -0.4859   -0.2155 C   0  0  0  0  0  0  0  0  0  0  0  0
   -5.4515   -1.0024    2.3792 C   0  0  0  0  0  0  0  0  0  0  0  0
   -8.5474   -2.7091   -1.5589 C   0  0  0  0  0  0  0  0  0  0  0  0
   -7.7368   -2.2402   -0.6165 C   0  0  0  0  0  0  0  0  0  0  0  0
   -4.1570   -0.2219    2.1803 C   0  0  0  0  0  0  0  0  0  0  0  0
   -5.5736   -2.1154    1.3485 C   0  0  0  0  0  0  0  0  0  0  0  0
   -4.2166   -0.9031   -0.2507 C   0  0  0  0  0  0  0  0  0  0  0  0
    2.4405   -0.8924   -0.1648 C   0  0  0  0  0  0  0  0  0  0  0  0
    0.7365    0.7150    0.3791 C   0  0  0  0  0  0  0  0  0  0  0  0
    3.4139   -0.1277    0.4877 C   0  0  0  0  0  0  0  0  0  0  0  0
    6.9974   -0.4606    0.6167 C   0  0  0  0  0  0  0  0  0  0  0  0
   -0.6667    1.1356    0.3359 C   0  0  0  0  0  0  0  0  0  0  0  0
   -4.0478    0.2570    0.7358 C   0  0  2  0  0  0  0  0  0  0  0  0
    0.4529    4.0194   -0.6457 N   0  0  0  0  0  0  0  0  0  0  0  0
    7.8782   -0.8418    1.5097 N   0  0  0  0  0  0  0  0  0  0  0  0
   -1.6272    0.2819    0.6016 N   0  0  0  0  0  0  0  0  0  0  0  0
   -5.4777   -1.5704    0.0029 N   0  0  0  0  0  0  0  0  0  0  0  0
    7.3964   -0.7670   -0.6402 N   0  0  0  0  0  0  0  0  0  0  0  0
   -2.7931    0.9343    0.4891 N   0  0  0  0  0  0  0  0  0  0  0  0
   -6.1965   -1.2712   -2.1160 O   0  0  0  0  0  0  0  0  0  0  0  0
    4.6609   -0.6130    0.4903 O   0  0  0  0  0  0  0  0  0  0  0  0
   -3.7370    5.1182   -0.5601 H   0  0  0  0  0  0  0  0  0  0  0  0
    5.8876   -1.2862   -2.0086 H   0  0  0  0  0  0  0  0  0  0  0  0
    6.2033    0.4498   -1.8524 H   0  0  0  0  0  0  0  0  0  0  0  0
    7.3527   -0.5764   -2.7047 H   0  0  0  0  0  0  0  0  0  0  0  0
    9.7649   -1.8274    1.2853 H   0  0  0  0  0  0  0  0  0  0  0  0
    1.4200    2.3906    1.5411 H   0  0  0  0  0  0  0  0  0  0  0  0
    3.7371    1.6769    1.6215 H   0  0  0  0  0  0  0  0  0  0  0  0
    9.1452   -1.7426   -1.3952 H   0  0  0  0  0  0  0  0  0  0  0  0
    0.3959   -1.0932   -0.7373 H   0  0  0  0  0  0  0  0  0  0  0  0
   -5.4781   -1.4331    3.3814 H   0  0  0  0  0  0  0  0  0  0  0  0
   -6.3141   -0.3362    2.2911 H   0  0  0  0  0  0  0  0  0  0  0  0
   -9.5158   -3.1173   -1.3049 H   0  0  0  0  0  0  0  0  0  0  0  0
   -8.2736   -2.7108   -2.6058 H   0  0  0  0  0  0  0  0  0  0  0  0
   -8.0612   -2.2594    0.4149 H   0  0  0  0  0  0  0  0  0  0  0  0
   -4.1132    0.6332    2.8576 H   0  0  0  0  0  0  0  0  0  0  0  0
   -3.3034   -0.8649    2.4129 H   0  0  0  0  0  0  0  0  0  0  0  0
   -4.7597   -2.8365    1.4817 H   0  0  0  0  0  0  0  0  0  0  0  0
   -6.4969   -2.6695    1.4813 H   0  0  0  0  0  0  0  0  0  0  0  0
    5.6724    0.4216    1.9935 H   0  0  0  0  0  0  0  0  0  0  0  0
    5.6617    1.1985    0.4015 H   0  0  0  0  0  0  0  0  0  0  0  0
   -4.1895   -0.5360   -1.2730 H   0  0  0  0  0  0  0  0  0  0  0  0
   -3.3958   -1.6159   -0.1252 H   0  0  0  0  0  0  0  0  0  0  0  0
   -4.8274    0.9970    0.5398 H   0  0  0  0  0  0  0  0  0  0  0  0
    1.1827    3.3289   -0.6688 H   0  0  0  0  0  0  0  0  0  0  0  0
    0.6582    4.9208   -1.0434 H   0  0  0  0  0  0  0  0  0  0  0  0
    2.9160   -2.3671   -0.9283 Cl  0  0  0  0  0  0  0  0  0  0  0  0
    5.7216    0.2337    0.9180 C   0  0  0  0  0  0  0  0  0  0  0  0
   -6.4120   -1.6584   -0.9730 C   0  0  0  0  0  0  0  0  0  0  0  0
 14 15  2  0
 15 60  1  0
 31 60  2  0
 60 28  1  0
  6  5  2  0
  6  4  1  0
  5  1  1  0
 28 18  1  0
 28 17  1  0
 18 24  1  0
  4  3  2  0
 24 30  1  0
 24 16  1  0
  1 30  1  0
  1  2  2  0
 30 27  1  0
  3  2  1  0
  3 25  1  0
 17 13  1  0
  2 23  1  0
 13 16  1  0
 27 23  2  0
 23 20  1  0
  8 26  1  0
  8 11  2  0
  9 20  2  0
  9 10  1  0
 26 22  2  0
 20 12  1  0
 11 29  1  0
 10 21  2  0
 22 29  1  0
 22 59  1  0
 12 19  2  0
 29  7  1  0
 21 19  1  0
 21 32  1  0
 19 58  1  0
 59 32  1  0
  6 33  1  0
  7 34  1  0
  7 35  1  0
  7 36  1  0
  8 37  1  0
  9 38  1  0
 10 39  1  0
 11 40  1  0
 12 41  1  0
 13 42  1  0
 13 43  1  0
 14 44  1  0
 14 45  1  0
 15 46  1  0
 16 47  1  0
 16 48  1  0
 17 49  1  0
 17 50  1  0
 59 51  1  0
 59 52  1  0
 18 53  1  0
 18 54  1  0
 24 55  1  6
 25 56  1  0
 25 57  1  0
M  END
