
     RDKit          3D

 47 50  0  0  0  0  0  0  0  0999 V2000
    4.2047    0.9462   -2.3353 C   0  0  0  0  0  0  0  0  0  0  0  0
    4.1480    2.1217   -1.5976 C   0  0  0  0  0  0  0  0  0  0  0  0
    3.9532    2.0697   -0.2251 C   0  0  0  0  0  0  0  0  0  0  0  0
    3.8127    0.8452    0.4185 C   0  0  0  0  0  0  0  0  0  0  0  0
    3.8689   -0.3130   -0.3354 C   0  0  0  0  0  0  0  0  0  0  0  0
    4.0700   -0.2801   -1.7099 C   0  0  0  0  0  0  0  0  0  0  0  0
    3.6835   -1.8854    0.4729 S   0  0  1  0  0  0  0  0  0  0  0  0
    4.4948   -2.8547   -0.2541 O   0  0  0  0  0  0  0  0  0  0  0  0
    3.8984   -1.6812    1.9014 O   0  0  0  0  0  0  0  0  0  0  0  0
    1.9777   -2.2811    0.2167 C   0  0  0  0  0  0  0  0  0  0  0  0
    1.0251   -1.7796    1.0972 C   0  0  0  0  0  0  0  0  0  0  0  0
   -0.3090   -2.0716    0.8805 C   0  0  0  0  0  0  0  0  0  0  0  0
   -0.6989   -2.8603   -0.2013 C   0  0  0  0  0  0  0  0  0  0  0  0
    0.2723   -3.3566   -1.0620 C   0  0  0  0  0  0  0  0  0  0  0  0
    1.6155   -3.0747   -0.8600 C   0  0  0  0  0  0  0  0  0  0  0  0
   -2.1544   -3.1810   -0.4302 C   0  0  0  0  0  0  0  0  0  0  0  0
   -2.9722   -1.9960   -0.5377 N   0  0  0  0  0  0  0  0  0  0  0  0
   -3.8300   -1.5916    0.4177 C   0  0  0  0  0  0  0  0  0  0  0  0
   -4.0123   -2.2121    1.4562 O   0  0  0  0  0  0  0  0  0  0  0  0
   -4.5797   -0.3330    0.1386 C   0  0  0  0  0  0  0  0  0  0  0  0
   -5.7809   -0.1354    0.7753 C   0  0  0  0  0  0  0  0  0  0  0  0
   -6.4611    1.0535    0.4905 C   0  0  0  0  0  0  0  0  0  0  0  0
   -7.6624    1.6523    0.8622 C   0  0  0  0  0  0  0  0  0  0  0  0
   -7.6887    2.8085    0.2051 N   0  0  0  0  0  0  0  0  0  0  0  0
   -6.6395    3.0602   -0.5686 N   0  0  0  0  0  0  0  0  0  0  0  0
   -5.8703    1.9880   -0.4063 C   0  0  0  0  0  0  0  0  0  0  0  0
   -4.6769    1.8067   -1.0050 N   0  0  0  0  0  0  0  0  0  0  0  0
   -4.0777    0.6816   -0.7311 C   0  0  0  0  0  0  0  0  0  0  0  0
    3.8944    3.3161    0.6047 C   0  0  1  0  0  0  0  0  0  0  0  0
    4.0338    4.4239   -0.1247 F   0  0  0  0  0  0  0  0  0  0  0  0
    2.7293    3.4144    1.2579 F   0  0  0  0  0  0  0  0  0  0  0  0
    4.8571    3.3300    1.5357 F   0  0  0  0  0  0  0  0  0  0  0  0
    4.3593    0.9910   -3.4040 H   0  0  0  0  0  0  0  0  0  0  0  0
    4.2609    3.0672   -2.1091 H   0  0  0  0  0  0  0  0  0  0  0  0
    3.6667    0.7925    1.4899 H   0  0  0  0  0  0  0  0  0  0  0  0
    4.1234   -1.1908   -2.2913 H   0  0  0  0  0  0  0  0  0  0  0  0
    1.3112   -1.1735    1.9465 H   0  0  0  0  0  0  0  0  0  0  0  0
   -1.0500   -1.6887    1.5707 H   0  0  0  0  0  0  0  0  0  0  0  0
   -0.0174   -3.9707   -1.9056 H   0  0  0  0  0  0  0  0  0  0  0  0
    2.3562   -3.4736   -1.5394 H   0  0  0  0  0  0  0  0  0  0  0  0
   -2.2623   -3.7697   -1.3417 H   0  0  0  0  0  0  0  0  0  0  0  0
   -2.5344   -3.7909    0.3888 H   0  0  0  0  0  0  0  0  0  0  0  0
   -2.9202   -1.4925   -1.4083 H   0  0  0  0  0  0  0  0  0  0  0  0
   -6.1859   -0.8726    1.4562 H   0  0  0  0  0  0  0  0  0  0  0  0
   -8.4599    1.3435    1.5170 H   0  0  0  0  0  0  0  0  0  0  0  0
   -8.4327    3.4899    0.2518 H   0  0  0  0  0  0  0  0  0  0  0  0
   -3.1057    0.5468   -1.1954 H   0  0  0  0  0  0  0  0  0  0  0  0
 24 25  1  0
 24 23  1  0
 25 26  2  0
 23 22  2  0
 26 22  1  0
 26 27  1  0
 22 21  1  0
 27 28  2  0
 21 20  2  0
 28 20  1  0
 20 18  1  0
 18 17  1  0
 18 19  2  0
 17 16  1  0
 16 13  1  0
 12 13  1  0
 12 11  2  0
 13 14  2  0
 11 10  1  0
 14 15  1  0
  9  7  2  0
 10 15  2  0
  7 10  1  1
  7  8  2  0
  7  5  1  0
 29 31  1  1
  4  5  2  0
  4  3  1  0
  5  6  1  0
 29 30  1  0
 29  3  1  0
 29 32  1  0
  3  2  2  0
  6  1  2  0
  2  1  1  0
  1 33  1  0
  2 34  1  0
  4 35  1  0
  6 36  1  0
 11 37  1  0
 12 38  1  0
 14 39  1  0
 15 40  1  0
 16 41  1  0
 16 42  1  0
 17 43  1  0
 21 44  1  0
 23 45  1  0
 24 46  1  0
 28 47  1  0
M  END
