
     RDKit          3D

 81 80  0  0  0  0  0  0  0  0999 V2000
   -3.3620    1.5909   -5.9874 C   0  0  0  0  0  0  0  0  0  0  0  0
   -3.6478    0.6092   -6.9580 O   0  0  0  0  0  0  0  0  0  0  0  0
   -2.7145    0.9152   -4.7892 C   0  0  2  0  0  0  0  0  0  0  0  0
   -1.4630    0.3025   -5.1747 N   0  0  0  0  0  0  0  0  0  0  0  0
   -3.6387   -0.1339   -4.1214 C   0  0  2  0  0  0  0  0  0  0  0  0
   -4.9028    0.4115   -3.8469 O   0  0  0  0  0  0  0  0  0  0  0  0
   -2.9819   -0.7434   -2.9148 C   0  0  0  0  0  0  0  0  0  0  0  0
   -3.5266   -0.8580   -1.7077 C   0  0  0  0  0  0  0  0  0  0  0  0
   -2.8355   -1.4630   -0.5270 C   0  0  0  0  0  0  0  0  0  0  0  0
   -2.6950   -0.4849    0.6391 C   0  0  0  0  0  0  0  0  0  0  0  0
   -2.0023   -1.1090    1.8439 C   0  0  0  0  0  0  0  0  0  0  0  0
   -1.8733   -0.1599    3.0284 C   0  0  0  0  0  0  0  0  0  0  0  0
   -1.1567   -0.7891    4.2169 C   0  0  0  0  0  0  0  0  0  0  0  0
   -1.0272    0.1449    5.4134 C   0  0  0  0  0  0  0  0  0  0  0  0
   -0.2978   -0.4924    6.5897 C   0  0  0  0  0  0  0  0  0  0  0  0
   -0.1616    0.4317    7.7931 C   0  0  0  0  0  0  0  0  0  0  0  0
    0.5758   -0.2129    8.9603 C   0  0  0  0  0  0  0  0  0  0  0  0
    0.7183    0.7044   10.1681 C   0  0  0  0  0  0  0  0  0  0  0  0
    1.4595    0.0540   11.3296 C   0  0  0  0  0  0  0  0  0  0  0  0
    1.6055    0.9659   12.5415 C   0  0  0  0  0  0  0  0  0  0  0  0
    2.3461    0.3008   13.6936 C   0  0  0  0  0  0  0  0  0  0  0  0
   -0.2684    0.5689   -4.6119 C   0  0  0  0  0  0  0  0  0  0  0  0
   -0.1114    1.4160   -3.7441 O   0  0  0  0  0  0  0  0  0  0  0  0
    0.8694   -0.2993   -5.1061 C   0  0  0  0  0  0  0  0  0  0  0  0
    2.2026    0.4313   -5.1914 C   0  0  0  0  0  0  0  0  0  0  0  0
    3.3380   -0.4996   -5.5988 C   0  0  0  0  0  0  0  0  0  0  0  0
    4.6836    0.2076   -5.6975 C   0  0  0  0  0  0  0  0  0  0  0  0
    5.8238   -0.7259   -6.0849 C   0  0  0  0  0  0  0  0  0  0  0  0
    7.1722   -0.0230   -6.1838 C   0  0  0  0  0  0  0  0  0  0  0  0
    8.3057   -0.9656   -6.5641 C   0  0  0  0  0  0  0  0  0  0  0  0
   -4.2640    2.1196   -5.6626 H   0  0  0  0  0  0  0  0  0  0  0  0
   -2.6650    2.3470   -6.3704 H   0  0  0  0  0  0  0  0  0  0  0  0
   -4.0418    1.0395   -7.7217 H   0  0  0  0  0  0  0  0  0  0  0  0
   -2.4893    1.6934   -4.0562 H   0  0  0  0  0  0  0  0  0  0  0  0
   -1.4996   -0.3886   -5.9073 H   0  0  0  0  0  0  0  0  0  0  0  0
   -3.8141   -0.9325   -4.8517 H   0  0  0  0  0  0  0  0  0  0  0  0
   -4.8034    1.0834   -3.1626 H   0  0  0  0  0  0  0  0  0  0  0  0
   -1.9810   -1.1332   -3.0729 H   0  0  0  0  0  0  0  0  0  0  0  0
   -4.5363   -0.4970   -1.5288 H   0  0  0  0  0  0  0  0  0  0  0  0
   -1.8481   -1.8306   -0.8213 H   0  0  0  0  0  0  0  0  0  0  0  0
   -3.4030   -2.3356   -0.1828 H   0  0  0  0  0  0  0  0  0  0  0  0
   -3.6864   -0.1244    0.9333 H   0  0  0  0  0  0  0  0  0  0  0  0
   -2.1342    0.3950    0.3082 H   0  0  0  0  0  0  0  0  0  0  0  0
   -1.0061   -1.4545    1.5466 H   0  0  0  0  0  0  0  0  0  0  0  0
   -2.5526   -2.0041    2.1548 H   0  0  0  0  0  0  0  0  0  0  0  0
   -2.8699    0.1725    3.3389 H   0  0  0  0  0  0  0  0  0  0  0  0
   -1.3357    0.7425    2.7169 H   0  0  0  0  0  0  0  0  0  0  0  0
   -0.1590   -1.1159    3.9036 H   0  0  0  0  0  0  0  0  0  0  0  0
   -1.6897   -1.6967    4.5215 H   0  0  0  0  0  0  0  0  0  0  0  0
   -2.0242    0.4657    5.7348 H   0  0  0  0  0  0  0  0  0  0  0  0
   -0.4992    1.0557    5.1096 H   0  0  0  0  0  0  0  0  0  0  0  0
    0.6985   -0.8129    6.2651 H   0  0  0  0  0  0  0  0  0  0  0  0
   -0.8249   -1.4048    6.8906 H   0  0  0  0  0  0  0  0  0  0  0  0
   -1.1571    0.7488    8.1232 H   0  0  0  0  0  0  0  0  0  0  0  0
    0.3630    1.3456    7.4930 H   0  0  0  0  0  0  0  0  0  0  0  0
    1.5702   -0.5308    8.6276 H   0  0  0  0  0  0  0  0  0  0  0  0
    0.0510   -1.1274    9.2589 H   0  0  0  0  0  0  0  0  0  0  0  0
   -0.2755    1.0209   10.5039 H   0  0  0  0  0  0  0  0  0  0  0  0
    1.2423    1.6195    9.8703 H   0  0  0  0  0  0  0  0  0  0  0  0
    2.4532   -0.2627   10.9934 H   0  0  0  0  0  0  0  0  0  0  0  0
    0.9357   -0.8617   11.6262 H   0  0  0  0  0  0  0  0  0  0  0  0
    0.6132    1.2825   12.8776 H   0  0  0  0  0  0  0  0  0  0  0  0
    2.1300    1.8798   12.2450 H   0  0  0  0  0  0  0  0  0  0  0  0
    2.4295    0.9631   14.5560 H   0  0  0  0  0  0  0  0  0  0  0  0
    1.8301   -0.6043   14.0194 H   0  0  0  0  0  0  0  0  0  0  0  0
    3.3569    0.0134   13.3981 H   0  0  0  0  0  0  0  0  0  0  0  0
    0.6207   -0.7465   -6.0721 H   0  0  0  0  0  0  0  0  0  0  0  0
    0.9560   -1.1342   -4.4013 H   0  0  0  0  0  0  0  0  0  0  0  0
    2.4346    0.8857   -4.2255 H   0  0  0  0  0  0  0  0  0  0  0  0
    2.1263    1.2519   -5.9115 H   0  0  0  0  0  0  0  0  0  0  0  0
    3.1010   -0.9657   -6.5613 H   0  0  0  0  0  0  0  0  0  0  0  0
    3.4106   -1.3185   -4.8746 H   0  0  0  0  0  0  0  0  0  0  0  0
    4.9156    0.6820   -4.7377 H   0  0  0  0  0  0  0  0  0  0  0  0
    4.6141    1.0203   -6.4289 H   0  0  0  0  0  0  0  0  0  0  0  0
    5.5921   -1.2022   -7.0440 H   0  0  0  0  0  0  0  0  0  0  0  0
    5.8927   -1.5380   -5.3525 H   0  0  0  0  0  0  0  0  0  0  0  0
    7.4011    0.4552   -5.2263 H   0  0  0  0  0  0  0  0  0  0  0  0
    7.1055    0.7858   -6.9180 H   0  0  0  0  0  0  0  0  0  0  0  0
    9.2602   -0.4414   -6.6248 H   0  0  0  0  0  0  0  0  0  0  0  0
    8.4151   -1.7669   -5.8306 H   0  0  0  0  0  0  0  0  0  0  0  0
    8.1231   -1.4321   -7.5340 H   0  0  0  0  0  0  0  0  0  0  0  0
  1  2  1  0
  1  3  1  0
  1 31  1  0
  1 32  1  0
  2 33  1  0
  3  4  1  0
  3  5  1  0
  3 34  1  1
  4 22  1  0
  4 35  1  0
  5  6  1  0
  5  7  1  0
  5 36  1  6
  6 37  1  0
  7  8  2  0
  7 38  1  0
  8  9  1  0
  8 39  1  0
  9 10  1  0
  9 40  1  0
  9 41  1  0
 10 11  1  0
 10 42  1  0
 10 43  1  0
 11 12  1  0
 11 44  1  0
 11 45  1  0
 12 13  1  0
 12 46  1  0
 12 47  1  0
 13 14  1  0
 13 48  1  0
 13 49  1  0
 14 15  1  0
 14 50  1  0
 14 51  1  0
 15 16  1  0
 15 52  1  0
 15 53  1  0
 16 17  1  0
 16 54  1  0
 16 55  1  0
 17 18  1  0
 17 56  1  0
 17 57  1  0
 18 19  1  0
 18 58  1  0
 18 59  1  0
 19 20  1  0
 19 60  1  0
 19 61  1  0
 20 21  1  0
 20 62  1  0
 20 63  1  0
 21 64  1  0
 21 65  1  0
 21 66  1  0
 22 23  2  0
 22 24  1  0
 24 25  1  0
 24 67  1  0
 24 68  1  0
 25 26  1  0
 25 69  1  0
 25 70  1  0
 26 27  1  0
 26 71  1  0
 26 72  1  0
 27 28  1  0
 27 73  1  0
 27 74  1  0
 28 29  1  0
 28 75  1  0
 28 76  1  0
 29 30  1  0
 29 77  1  0
 29 78  1  0
 30 79  1  0
 30 80  1  0
 30 81  1  0
M  END
