
     RDKit          3D

 13 13  0  0  0  0  0  0  0  0999 V2000
    0.1879    0.1882    3.9673 O   0  0  0  0  0  0  0  0  0  0  0  0
    0.0938    0.1135    2.6278 C   0  0  0  0  0  0  0  0  0  0  0  0
   -1.1259    0.1300    1.9561 C   0  0  0  0  0  0  0  0  0  0  0  0
   -1.1652    0.0484    0.5720 C   0  0  0  0  0  0  0  0  0  0  0  0
    0.0180   -0.0491   -0.1431 C   0  0  0  0  0  0  0  0  0  0  0  0
    1.2401   -0.0661    0.5154 C   0  0  0  0  0  0  0  0  0  0  0  0
    1.2766    0.0158    1.8974 C   0  0  0  0  0  0  0  0  0  0  0  0
   -0.0318   -0.1593   -2.0296 Br  0  0  0  0  0  0  0  0  0  0  0  0
   -0.6870    0.2656    4.3643 H   0  0  0  0  0  0  0  0  0  0  0  0
   -2.0553    0.2069    2.5084 H   0  0  0  0  0  0  0  0  0  0  0  0
   -2.1233    0.0625    0.0696 H   0  0  0  0  0  0  0  0  0  0  0  0
    2.1686   -0.1435   -0.0344 H   0  0  0  0  0  0  0  0  0  0  0  0
    2.2291    0.0037    2.4119 H   0  0  0  0  0  0  0  0  0  0  0  0
  1  2  1  0
  1  9  1  0
  2  3  2  0
  2  7  1  0
  3  4  1  0
  3 10  1  0
  4  5  2  0
  4 11  1  0
  5  6  1  0
  5  8  1  0
  6  7  2  0
  6 12  1  0
  7 13  1  0
M  END
