
     RDKit          3D

 53 54  0  0  0  0  0  0  0  0999 V2000
   -8.8480    1.0449    0.9406 N   0  0  0  0  0  0  0  0  0  0  0  0
   -8.5798    0.2000   -0.1977 C   0  0  1  0  0  0  0  0  0  0  0  0
   -7.1902   -0.4412   -0.0819 C   0  0  0  0  0  0  0  0  0  0  0  0
   -6.0605    0.5791   -0.0590 C   0  0  0  0  0  0  0  0  0  0  0  0
   -4.6975   -0.0908    0.0586 C   0  0  0  0  0  0  0  0  0  0  0  0
   -3.5629    0.9211    0.0702 C   0  0  0  0  0  0  0  0  0  0  0  0
   -2.2839    0.2594    0.2160 N   0  0  0  0  0  0  0  0  0  0  0  0
   -1.1128    0.7930   -0.1710 C   0  0  0  0  0  0  0  0  0  0  0  0
   -1.0339    1.8752   -0.7372 O   0  0  0  0  0  0  0  0  0  0  0  0
    0.1027   -0.0525    0.1569 C   0  0  0  0  0  0  0  0  0  0  0  0
    1.3955    0.4601   -0.4567 C   0  0  0  0  0  0  0  0  0  0  0  0
    2.5767   -0.4407   -0.1188 C   0  0  0  0  0  0  0  0  0  0  0  0
    3.8886    0.0825   -0.6917 C   0  0  0  0  0  0  0  0  0  0  0  0
    5.0580   -0.8614   -0.4843 C   0  0  2  0  0  0  0  0  0  0  0  0
    5.4458   -1.1357    1.2765 S   0  0  0  0  0  0  0  0  0  0  0  0
    6.9855   -1.9472    0.7783 C   0  0  0  0  0  0  0  0  0  0  0  0
    7.5537   -1.1217   -0.3818 C   0  0  2  0  0  0  0  0  0  0  0  0
    8.3912   -0.0296    0.0416 N   0  0  0  0  0  0  0  0  0  0  0  0
    7.8520    1.1950   -0.1844 C   0  0  0  0  0  0  0  0  0  0  0  0
    8.3441    2.2721    0.1154 O   0  0  0  0  0  0  0  0  0  0  0  0
    6.6640    1.0005   -0.8195 N   0  0  0  0  0  0  0  0  0  0  0  0
    6.3819   -0.3849   -1.0963 C   0  0  2  0  0  0  0  0  0  0  0  0
   -9.6167   -0.8979   -0.3983 C   0  0  0  0  0  0  0  0  0  0  0  0
  -10.4109   -1.2541    0.4365 O   0  0  0  0  0  0  0  0  0  0  0  0
   -9.5413   -1.4402   -1.6089 O   0  0  0  0  0  0  0  0  0  0  0  0
   -9.7497    1.4938    0.8442 H   0  0  0  0  0  0  0  0  0  0  0  0
   -8.8978    0.4870    1.7844 H   0  0  0  0  0  0  0  0  0  0  0  0
   -8.5928    0.8222   -1.0987 H   0  0  0  0  0  0  0  0  0  0  0  0
   -7.1565   -1.0509    0.8280 H   0  0  0  0  0  0  0  0  0  0  0  0
   -7.0358   -1.1277   -0.9174 H   0  0  0  0  0  0  0  0  0  0  0  0
   -6.0973    1.1787   -0.9749 H   0  0  0  0  0  0  0  0  0  0  0  0
   -6.2055    1.2735    0.7713 H   0  0  0  0  0  0  0  0  0  0  0  0
   -4.6654   -0.6876    0.9769 H   0  0  0  0  0  0  0  0  0  0  0  0
   -4.5521   -0.7880   -0.7721 H   0  0  0  0  0  0  0  0  0  0  0  0
   -3.5617    1.4878   -0.8621 H   0  0  0  0  0  0  0  0  0  0  0  0
   -3.7189    1.6426    0.8800 H   0  0  0  0  0  0  0  0  0  0  0  0
   -2.2645   -0.6028    0.7385 H   0  0  0  0  0  0  0  0  0  0  0  0
    0.2001   -0.0944    1.2472 H   0  0  0  0  0  0  0  0  0  0  0  0
   -0.0826   -1.0833   -0.1608 H   0  0  0  0  0  0  0  0  0  0  0  0
    1.2901    0.5252   -1.5431 H   0  0  0  0  0  0  0  0  0  0  0  0
    1.5971    1.4748   -0.1044 H   0  0  0  0  0  0  0  0  0  0  0  0
    2.6614   -0.5360    0.9687 H   0  0  0  0  0  0  0  0  0  0  0  0
    2.3894   -1.4505   -0.4994 H   0  0  0  0  0  0  0  0  0  0  0  0
    3.7707    0.2398   -1.7694 H   0  0  0  0  0  0  0  0  0  0  0  0
    4.1190    1.0578   -0.2553 H   0  0  0  0  0  0  0  0  0  0  0  0
    4.8167   -1.8352   -0.9247 H   0  0  0  0  0  0  0  0  0  0  0  0
    7.6750   -2.0056    1.6199 H   0  0  0  0  0  0  0  0  0  0  0  0
    6.7717   -2.9638    0.4439 H   0  0  0  0  0  0  0  0  0  0  0  0
    8.0923   -1.7830   -1.0644 H   0  0  0  0  0  0  0  0  0  0  0  0
    9.1749   -0.1545    0.6602 H   0  0  0  0  0  0  0  0  0  0  0  0
    6.2440    1.7444   -1.3505 H   0  0  0  0  0  0  0  0  0  0  0  0
    6.3743   -0.5800   -2.1725 H   0  0  0  0  0  0  0  0  0  0  0  0
  -10.1876   -2.1569   -1.6961 H   0  0  0  0  0  0  0  0  0  0  0  0
 24 23  2  0
 25 23  1  0
 23  2  1  0
  2  3  1  0
  2  1  1  0
  3  4  1  0
  5  4  1  0
  5  6  1  0
  9  8  2  0
  8 10  1  0
  8  7  1  0
  6  7  1  0
 10 11  1  0
 11 12  1  0
 12 13  1  0
 13 14  1  0
 15 14  1  0
 15 16  1  0
 14 22  1  0
 21 22  1  0
 21 19  1  0
 22 17  1  0
 16 17  1  0
 20 19  2  0
 19 18  1  0
 17 18  1  0
  1 26  1  0
  1 27  1  0
  2 28  1  6
  3 29  1  0
  3 30  1  0
  4 31  1  0
  4 32  1  0
  5 33  1  0
  5 34  1  0
  6 35  1  0
  6 36  1  0
  7 37  1  0
 10 38  1  0
 10 39  1  0
 11 40  1  0
 11 41  1  0
 12 42  1  0
 12 43  1  0
 13 44  1  0
 13 45  1  0
 14 46  1  6
 16 47  1  0
 16 48  1  0
 17 49  1  6
 18 50  1  0
 21 51  1  0
 22 52  1  6
 25 53  1  0
M  END
