
     RDKit          3D

 27 27  0  0  0  0  0  0  0  0999 V2000
    0.0012   -2.3352   -0.5655 Cl  0  0  0  0  0  0  0  0  0  0  0  0
    0.5298   -0.7328   -0.1709 C   0  0  0  0  0  0  0  0  0  0  0  0
    1.8813   -0.4586   -0.0927 C   0  0  0  0  0  0  0  0  0  0  0  0
    2.3249    0.8249    0.2175 C   0  0  0  0  0  0  0  0  0  0  0  0
    3.7967    1.1298    0.3399 C   0  0  0  0  0  0  0  0  0  0  0  0
    4.5899    0.3670   -0.6073 N   0  0  0  0  0  0  0  0  0  0  0  0
    1.3708    1.8090    0.4338 C   0  0  0  0  0  0  0  0  0  0  0  0
    0.0105    1.5371    0.3576 C   0  0  0  0  0  0  0  0  0  0  0  0
   -0.4354    0.2551    0.0520 C   0  0  0  0  0  0  0  0  0  0  0  0
   -1.7203   -0.1094   -0.0519 O   0  0  0  0  0  0  0  0  0  0  0  0
   -2.7271    0.8866    0.0731 C   0  0  0  0  0  0  0  0  0  0  0  0
   -4.0742    0.2311   -0.1451 C   0  0  0  0  0  0  0  0  0  0  0  0
   -5.1991    1.2534   -0.0528 C   0  0  0  0  0  0  0  0  0  0  0  0
    2.6000   -1.2446   -0.2832 H   0  0  0  0  0  0  0  0  0  0  0  0
    3.9305    2.2172    0.2631 H   0  0  0  0  0  0  0  0  0  0  0  0
    4.1309    0.8585    1.3459 H   0  0  0  0  0  0  0  0  0  0  0  0
    4.4155    0.7033   -1.5461 H   0  0  0  0  0  0  0  0  0  0  0  0
    5.5724    0.5294   -0.4288 H   0  0  0  0  0  0  0  0  0  0  0  0
    1.6851    2.8191    0.6673 H   0  0  0  0  0  0  0  0  0  0  0  0
   -0.6933    2.3397    0.5301 H   0  0  0  0  0  0  0  0  0  0  0  0
   -2.6864    1.3463    1.0675 H   0  0  0  0  0  0  0  0  0  0  0  0
   -2.5650    1.6806   -0.6654 H   0  0  0  0  0  0  0  0  0  0  0  0
   -4.0894   -0.2510   -1.1256 H   0  0  0  0  0  0  0  0  0  0  0  0
   -4.2226   -0.5535    0.6006 H   0  0  0  0  0  0  0  0  0  0  0  0
   -5.2135    1.7440    0.9219 H   0  0  0  0  0  0  0  0  0  0  0  0
   -5.0944    2.0281   -0.8134 H   0  0  0  0  0  0  0  0  0  0  0  0
   -6.1689    0.7782   -0.1956 H   0  0  0  0  0  0  0  0  0  0  0  0
 13 12  1  0
 12 11  1  0
 11 10  1  0
 10  9  1  0
  8  9  1  0
  8  7  2  0
  9  2  2  0
  7  4  1  0
  2  1  1  0
  2  3  1  0
  4  3  2  0
  4  5  1  0
  6  5  1  0
  3 14  1  0
  5 15  1  0
  5 16  1  0
  6 17  1  0
  6 18  1  0
  7 19  1  0
  8 20  1  0
 11 21  1  0
 11 22  1  0
 12 23  1  0
 12 24  1  0
 13 25  1  0
 13 26  1  0
 13 27  1  0
M  END
