
     RDKit          3D

 62 66  0  0  0  0  0  0  0  0999 V2000
    8.8759    0.4555   -1.1331 C   0  0  0  0  0  0  0  0  0  0  0  0
    8.3099    0.0985    0.2394 C   0  0  1  0  0  0  0  0  0  0  0  0
    8.7817   -1.2944    0.6602 C   0  0  0  0  0  0  0  0  0  0  0  0
    8.8266    1.0647    1.1382 O   0  0  0  0  0  0  0  0  0  0  0  0
    6.7900    0.1829    0.1882 C   0  0  0  0  0  0  0  0  0  0  0  0
    6.0006   -0.8453   -0.3068 C   0  0  0  0  0  0  0  0  0  0  0  0
    4.6803   -0.8053   -0.4096 N   0  0  0  0  0  0  0  0  0  0  0  0
    6.0956    1.3186    0.6006 C   0  0  0  0  0  0  0  0  0  0  0  0
    4.7198    1.3825    0.5107 C   0  0  0  0  0  0  0  0  0  0  0  0
    4.0212    0.2863   -0.0243 C   0  0  0  0  0  0  0  0  0  0  0  0
    2.6556    0.2816   -0.1985 N   0  0  0  0  0  0  0  0  0  0  0  0
    1.9628   -0.9944   -0.2401 C   0  0  0  0  0  0  0  0  0  0  0  0
    0.6290   -0.8584   -0.9383 C   0  0  0  0  0  0  0  0  0  0  0  0
    1.8543    1.3737    0.3144 C   0  0  0  0  0  0  0  0  0  0  0  0
    0.5103    1.4541   -0.3905 C   0  0  0  0  0  0  0  0  0  0  0  0
   -0.1720    0.1782   -0.2920 N   0  0  0  0  0  0  0  0  0  0  0  0
   -1.5335    0.1628   -0.5447 C   0  0  0  0  0  0  0  0  0  0  0  0
   -2.0577    1.1699   -1.1843 N   0  0  0  0  0  0  0  0  0  0  0  0
   -3.3707    1.2116   -1.4552 N   0  0  0  0  0  0  0  0  0  0  0  0
   -2.3317   -0.9237   -0.0523 C   0  0  0  0  0  0  0  0  0  0  0  0
   -1.8400   -1.9407    0.7852 C   0  0  0  0  0  0  0  0  0  0  0  0
   -2.6757   -2.9454    1.2042 C   0  0  0  0  0  0  0  0  0  0  0  0
   -4.0228   -2.9617    0.8080 C   0  0  0  0  0  0  0  0  0  0  0  0
   -4.5299   -1.9523    0.0291 C   0  0  0  0  0  0  0  0  0  0  0  0
   -3.6930   -0.9048   -0.3987 C   0  0  0  0  0  0  0  0  0  0  0  0
   -4.1608    0.2310   -1.1317 C   0  0  0  0  0  0  0  0  0  0  0  0
   -5.6052    0.3794   -1.5174 C   0  0  0  0  0  0  0  0  0  0  0  0
   -6.4980    0.7085   -0.3424 C   0  0  0  0  0  0  0  0  0  0  0  0
   -6.1949    1.7751    0.5017 C   0  0  0  0  0  0  0  0  0  0  0  0
   -7.0225    2.0890    1.5704 C   0  0  0  0  0  0  0  0  0  0  0  0
   -8.1684    1.3409    1.8121 C   0  0  0  0  0  0  0  0  0  0  0  0
   -8.4805    0.2792    0.9748 C   0  0  0  0  0  0  0  0  0  0  0  0
   -7.6492   -0.0328   -0.0939 C   0  0  0  0  0  0  0  0  0  0  0  0
    8.5055   -0.2370   -1.8891 H   0  0  0  0  0  0  0  0  0  0  0  0
    8.5797    1.4632   -1.4295 H   0  0  0  0  0  0  0  0  0  0  0  0
    9.9665    0.4029   -1.1332 H   0  0  0  0  0  0  0  0  0  0  0  0
    8.3637   -1.5771    1.6285 H   0  0  0  0  0  0  0  0  0  0  0  0
    8.4973   -2.0612   -0.0598 H   0  0  0  0  0  0  0  0  0  0  0  0
    9.8697   -1.3101    0.7378 H   0  0  0  0  0  0  0  0  0  0  0  0
    8.5638    0.8207    2.0328 H   0  0  0  0  0  0  0  0  0  0  0  0
    6.4547   -1.7694   -0.6501 H   0  0  0  0  0  0  0  0  0  0  0  0
    6.6264    2.1675    1.0112 H   0  0  0  0  0  0  0  0  0  0  0  0
    4.2136    2.2661    0.8688 H   0  0  0  0  0  0  0  0  0  0  0  0
    2.5710   -1.7161   -0.7773 H   0  0  0  0  0  0  0  0  0  0  0  0
    1.8053   -1.3833    0.7763 H   0  0  0  0  0  0  0  0  0  0  0  0
    0.7893   -0.6034   -1.9956 H   0  0  0  0  0  0  0  0  0  0  0  0
    0.1161   -1.8182   -0.9158 H   0  0  0  0  0  0  0  0  0  0  0  0
    1.6970    1.2795    1.3978 H   0  0  0  0  0  0  0  0  0  0  0  0
    2.3599    2.3215    0.1365 H   0  0  0  0  0  0  0  0  0  0  0  0
   -0.0851    2.2296    0.0892 H   0  0  0  0  0  0  0  0  0  0  0  0
    0.6621    1.7522   -1.4362 H   0  0  0  0  0  0  0  0  0  0  0  0
   -0.8120   -1.9201    1.1199 H   0  0  0  0  0  0  0  0  0  0  0  0
   -2.2979   -3.7264    1.8504 H   0  0  0  0  0  0  0  0  0  0  0  0
   -4.6683   -3.7645    1.1382 H   0  0  0  0  0  0  0  0  0  0  0  0
   -5.5757   -1.9612   -0.2444 H   0  0  0  0  0  0  0  0  0  0  0  0
   -5.6685    1.1793   -2.2577 H   0  0  0  0  0  0  0  0  0  0  0  0
   -5.9620   -0.5298   -2.0071 H   0  0  0  0  0  0  0  0  0  0  0  0
   -5.3074    2.3713    0.3242 H   0  0  0  0  0  0  0  0  0  0  0  0
   -6.7722    2.9214    2.2157 H   0  0  0  0  0  0  0  0  0  0  0  0
   -8.8137    1.5857    2.6459 H   0  0  0  0  0  0  0  0  0  0  0  0
   -9.3713   -0.3098    1.1519 H   0  0  0  0  0  0  0  0  0  0  0  0
   -7.9007   -0.8644   -0.7426 H   0  0  0  0  0  0  0  0  0  0  0  0
 32 31  2  0
 32 33  1  0
 31 30  1  0
 33 28  2  0
 30 29  2  0
 28 29  1  0
 28 27  1  0
 27 26  1  0
 24 23  2  0
 24 25  1  0
 26 25  2  0
 26 19  1  0
 23 22  1  0
 25 20  1  0
 19 18  2  0
 22 21  2  0
 18 17  1  0
 20 21  1  0
 20 17  2  0
 17 16  1  0
 16 13  1  0
 16 15  1  0
 13 12  1  0
 15 14  1  0
 12 11  1  0
 14 11  1  0
 11 10  1  0
 10  9  2  0
 10  7  1  0
  9  8  1  0
  7  6  2  0
  8  5  2  0
  6  5  1  0
  5  2  1  0
  2  3  1  0
  2  4  1  1
  2  1  1  0
  1 34  1  0
  1 35  1  0
  1 36  1  0
  3 37  1  0
  3 38  1  0
  3 39  1  0
  4 40  1  0
  6 41  1  0
  8 42  1  0
  9 43  1  0
 12 44  1  0
 12 45  1  0
 13 46  1  0
 13 47  1  0
 14 48  1  0
 14 49  1  0
 15 50  1  0
 15 51  1  0
 21 52  1  0
 22 53  1  0
 23 54  1  0
 24 55  1  0
 27 56  1  0
 27 57  1  0
 29 58  1  0
 30 59  1  0
 31 60  1  0
 32 61  1  0
 33 62  1  0
M  END
