
     RDKit          3D

 39 39  0  0  0  0  0  0  0  0999 V2000
    3.7245    1.2577    1.2647 O   0  0  0  0  0  0  0  0  0  0  0  0
    4.3959    0.5405    0.5555 C   0  0  0  0  0  0  0  0  0  0  0  0
    5.7291    0.5910    0.5591 O   0  0  0  0  0  0  0  0  0  0  0  0
    3.9270   -0.4732   -0.3971 C   0  0  0  0  0  0  0  0  0  0  0  0
    2.6507   -0.8120   -0.6783 C   0  0  0  0  0  0  0  0  0  0  0  0
    2.4176   -1.8949   -1.6899 C   0  0  0  0  0  0  0  0  0  0  0  0
    1.4827   -0.1886   -0.0629 C   0  0  0  0  0  0  0  0  0  0  0  0
    0.2303   -0.5705   -0.3262 C   0  0  0  0  0  0  0  0  0  0  0  0
   -1.0018    0.0464    0.2808 C   0  0  1  0  0  0  0  0  0  0  0  0
   -0.6878    0.9639    1.3040 O   0  0  0  0  0  0  0  0  0  0  0  0
   -1.7875    0.8327   -0.8093 C   0  0  2  0  0  0  0  0  0  0  0  0
   -2.0029   -0.0239   -2.0632 C   0  0  0  0  0  0  0  0  0  0  0  0
   -1.0351    2.0982   -1.2211 C   0  0  0  0  0  0  0  0  0  0  0  0
   -3.1517    1.2375   -0.2400 C   0  0  0  0  0  0  0  0  0  0  0  0
   -1.8597   -1.0618    0.9035 C   0  0  0  0  0  0  0  0  0  0  0  0
   -1.1363   -2.1638    1.6092 C   0  0  0  0  0  0  0  0  0  0  0  0
   -3.1973   -1.0133    0.8896 C   0  0  0  0  0  0  0  0  0  0  0  0
   -3.9540    0.0759    0.2699 C   0  0  0  0  0  0  0  0  0  0  0  0
   -5.1708    0.0515    0.2236 O   0  0  0  0  0  0  0  0  0  0  0  0
    6.0261    1.2609    1.1922 H   0  0  0  0  0  0  0  0  0  0  0  0
    4.7136   -1.0015   -0.9216 H   0  0  0  0  0  0  0  0  0  0  0  0
    1.8757   -2.7341   -1.2506 H   0  0  0  0  0  0  0  0  0  0  0  0
    1.8175   -1.5291   -2.5251 H   0  0  0  0  0  0  0  0  0  0  0  0
    3.3553   -2.2743   -2.0895 H   0  0  0  0  0  0  0  0  0  0  0  0
    1.6558    0.6204    0.6310 H   0  0  0  0  0  0  0  0  0  0  0  0
    0.0387   -1.3818   -1.0199 H   0  0  0  0  0  0  0  0  0  0  0  0
   -0.2225    0.5057    2.0131 H   0  0  0  0  0  0  0  0  0  0  0  0
   -2.4224   -1.0074   -1.8464 H   0  0  0  0  0  0  0  0  0  0  0  0
   -2.6937    0.4868   -2.7361 H   0  0  0  0  0  0  0  0  0  0  0  0
   -1.0733   -0.1731   -2.6134 H   0  0  0  0  0  0  0  0  0  0  0  0
   -0.0335    1.8704   -1.5885 H   0  0  0  0  0  0  0  0  0  0  0  0
   -1.5762    2.5914   -2.0312 H   0  0  0  0  0  0  0  0  0  0  0  0
   -0.9436    2.8144   -0.4054 H   0  0  0  0  0  0  0  0  0  0  0  0
   -3.0176    1.9275    0.6008 H   0  0  0  0  0  0  0  0  0  0  0  0
   -3.7294    1.7758   -0.9953 H   0  0  0  0  0  0  0  0  0  0  0  0
   -0.3994   -1.7678    2.3119 H   0  0  0  0  0  0  0  0  0  0  0  0
   -1.8234   -2.7989    2.1647 H   0  0  0  0  0  0  0  0  0  0  0  0
   -0.5838   -2.7921    0.9082 H   0  0  0  0  0  0  0  0  0  0  0  0
   -3.7743   -1.7979    1.3680 H   0  0  0  0  0  0  0  0  0  0  0  0
  1  2  2  0
  2  3  1  0
  2  4  1  0
  4  5  2  0
  5  6  1  0
  5  7  1  0
  7  8  2  0
  9 10  1  1
 16 15  1  0
  8  9  1  0
  9 15  1  0
  9 11  1  0
 15 17  2  0
 11 12  1  6
 11 13  1  0
 11 14  1  0
 17 18  1  0
 14 18  1  0
 18 19  2  0
  3 20  1  0
  4 21  1  0
  6 22  1  0
  6 23  1  0
  6 24  1  0
  7 25  1  0
  8 26  1  0
 10 27  1  0
 12 28  1  0
 12 29  1  0
 12 30  1  0
 13 31  1  0
 13 32  1  0
 13 33  1  0
 14 34  1  0
 14 35  1  0
 16 36  1  0
 16 37  1  0
 16 38  1  0
 17 39  1  0
M  END
