
     RDKit          3D

 27 28  0  0  0  0  0  0  0  0999 V2000
    4.9135   -1.1589   -0.6837 O   0  0  0  0  0  0  0  0  0  0  0  0
    4.3534   -0.2940   -0.0554 N   0  0  0  0  0  0  0  0  0  0  0  0
    4.9218    0.5799    0.5536 O   0  0  0  0  0  0  0  0  0  0  0  0
    2.8958   -0.3068   -0.0320 C   0  0  0  0  0  0  0  0  0  0  0  0
    2.2142   -1.2757   -0.7480 C   0  0  0  0  0  0  0  0  0  0  0  0
    0.8317   -1.2646   -0.7136 C   0  0  0  0  0  0  0  0  0  0  0  0
    2.2348    0.6529    0.7166 C   0  0  0  0  0  0  0  0  0  0  0  0
    0.8515    0.6430    0.7297 C   0  0  0  0  0  0  0  0  0  0  0  0
    0.0472    1.8097    1.7127 Cl  0  0  0  0  0  0  0  0  0  0  0  0
    0.1265   -0.3075    0.0106 C   0  0  0  0  0  0  0  0  0  0  0  0
   -1.3551   -0.3343   -0.0126 C   0  0  0  0  0  0  0  0  0  0  0  0
   -2.0386   -1.4802    0.3614 C   0  0  0  0  0  0  0  0  0  0  0  0
   -1.9663    0.7642   -0.4231 N   0  0  0  0  0  0  0  0  0  0  0  0
   -3.3018    0.7210   -0.4554 C   0  0  0  0  0  0  0  0  0  0  0  0
   -3.9431    1.8412   -0.8340 N   0  0  0  0  0  0  0  0  0  0  0  0
   -4.0554   -0.3320   -0.1213 N   0  0  0  0  0  0  0  0  0  0  0  0
   -3.4286   -1.4269    0.2820 C   0  0  0  0  0  0  0  0  0  0  0  0
   -4.2735   -2.6079    0.6339 C   0  0  0  0  0  0  0  0  0  0  0  0
    2.7338   -2.0254   -1.3256 H   0  0  0  0  0  0  0  0  0  0  0  0
    0.2845   -2.0107   -1.2739 H   0  0  0  0  0  0  0  0  0  0  0  0
    2.7758    1.3957    1.2844 H   0  0  0  0  0  0  0  0  0  0  0  0
   -1.5247   -2.3656    0.7063 H   0  0  0  0  0  0  0  0  0  0  0  0
   -4.9271    1.7991   -1.0329 H   0  0  0  0  0  0  0  0  0  0  0  0
   -3.4176    2.5911   -1.2475 H   0  0  0  0  0  0  0  0  0  0  0  0
   -4.7135   -3.0337   -0.2695 H   0  0  0  0  0  0  0  0  0  0  0  0
   -3.6944   -3.3862    1.1261 H   0  0  0  0  0  0  0  0  0  0  0  0
   -5.0958   -2.3139    1.2855 H   0  0  0  0  0  0  0  0  0  0  0  0
  9  8  1  0
 15 14  1  0
 14 16  2  0
 14 13  1  0
 16 17  1  0
 13 11  2  0
 17 18  1  0
 17 12  2  0
  8  7  1  0
  8 10  2  0
 11 12  1  0
 11 10  1  0
  7  4  2  0
 10  6  1  0
  1  2  1  0
  4  2  1  0
  4  5  1  0
  6  5  2  0
  2  3  2  0
  5 19  1  0
  6 20  1  0
  7 21  1  0
 12 22  1  0
 15 23  1  0
 15 24  1  0
 18 25  1  0
 18 26  1  0
 18 27  1  0
M  CHG  2   1  -1   2   1
M  END
