
     RDKit          3D

 45 48  0  0  0  0  0  0  0  0999 V2000
    2.3711    0.3593   -0.1950 C   0  0  0  0  0  0  0  0  0  0  0  0
    3.6817    0.6976    0.1363 C   0  0  0  0  0  0  0  0  0  0  0  0
    2.0912   -0.9616   -0.5488 C   0  0  0  0  0  0  0  0  0  0  0  0
    4.6910   -0.2505    0.1207 C   0  0  0  0  0  0  0  0  0  0  0  0
    3.0966   -1.9102   -0.5829 C   0  0  0  0  0  0  0  0  0  0  0  0
    4.4021   -1.5688   -0.2526 C   0  0  0  0  0  0  0  0  0  0  0  0
    1.3203    1.3951   -0.1597 C   0  0  0  0  0  0  0  0  0  0  0  0
   -0.0231    1.0727   -0.1060 C   0  0  0  0  0  0  0  0  0  0  0  0
   -2.9126    0.6602    0.0677 C   0  0  0  0  0  0  0  0  0  0  0  0
   -4.4125    0.7815   -0.1912 C   0  0  2  0  0  0  0  0  0  0  0  0
   -5.9820   -2.5395   -1.1570 C   0  0  0  0  0  0  0  0  0  0  0  0
   -5.4039   -1.2792   -1.2354 C   0  0  0  0  0  0  0  0  0  0  0  0
   -5.3176   -1.1609    1.1569 C   0  0  0  0  0  0  0  0  0  0  0  0
   -5.0112    1.7564    0.6323 O   0  0  0  0  0  0  0  0  0  0  0  0
    6.8151   -0.9488    0.7731 C   0  0  0  0  0  0  0  0  0  0  0  0
   -0.9446    2.1334   -0.0933 C   0  0  0  0  0  0  0  0  0  0  0  0
    0.7840    3.5913   -0.1313 C   0  0  0  0  0  0  0  0  0  0  0  0
   -6.2329   -3.1118    0.0823 C   0  0  0  0  0  0  0  0  0  0  0  0
   -5.8975   -2.4190    1.2390 C   0  0  0  0  0  0  0  0  0  0  0  0
   -5.0656   -0.5778   -0.0828 C   0  0  0  0  0  0  0  0  0  0  0  0
    6.6874   -2.0270   -0.2746 C   0  0  0  0  0  0  0  0  0  0  0  0
   -0.5209    3.4057   -0.1020 N   0  0  0  0  0  0  0  0  0  0  0  0
    1.7312    2.6726   -0.1670 N   0  0  0  0  0  0  0  0  0  0  0  0
   -2.2738    1.9440   -0.0771 N   0  0  0  0  0  0  0  0  0  0  0  0
    5.3552   -2.5224   -0.3051 O   0  0  0  0  0  0  0  0  0  0  0  0
    5.9415    0.1299    0.4739 O   0  0  0  0  0  0  0  0  0  0  0  0
    3.9233    1.7139    0.4194 H   0  0  0  0  0  0  0  0  0  0  0  0
    1.0918   -1.2619   -0.8320 H   0  0  0  0  0  0  0  0  0  0  0  0
    2.8771   -2.9289   -0.8768 H   0  0  0  0  0  0  0  0  0  0  0  0
   -0.3540    0.0465   -0.0536 H   0  0  0  0  0  0  0  0  0  0  0  0
   -2.7350    0.2354    1.0653 H   0  0  0  0  0  0  0  0  0  0  0  0
   -2.5003   -0.0475   -0.6551 H   0  0  0  0  0  0  0  0  0  0  0  0
   -4.5465    1.1450   -1.2139 H   0  0  0  0  0  0  0  0  0  0  0  0
   -5.2145   -0.8348   -2.2057 H   0  0  0  0  0  0  0  0  0  0  0  0
   -5.0634   -0.6460    2.0766 H   0  0  0  0  0  0  0  0  0  0  0  0
   -4.8349    1.5503    1.5568 H   0  0  0  0  0  0  0  0  0  0  0  0
    6.5886   -1.3523    1.7657 H   0  0  0  0  0  0  0  0  0  0  0  0
    7.8277   -0.5486    0.7867 H   0  0  0  0  0  0  0  0  0  0  0  0
    1.1172    4.6248   -0.1284 H   0  0  0  0  0  0  0  0  0  0  0  0
   -6.6883   -4.0915    0.1483 H   0  0  0  0  0  0  0  0  0  0  0  0
   -6.0883   -2.8596    2.2089 H   0  0  0  0  0  0  0  0  0  0  0  0
    6.9636   -1.6389   -1.2603 H   0  0  0  0  0  0  0  0  0  0  0  0
    7.3377   -2.8680   -0.0394 H   0  0  0  0  0  0  0  0  0  0  0  0
   -2.8337    2.7665    0.0901 H   0  0  0  0  0  0  0  0  0  0  0  0
   -6.2401   -3.0698   -2.0645 H   0  0  0  0  0  0  0  0  0  0  0  0
 18 19  1  0
 18 11  2  0
 19 13  2  0
 11 12  1  0
 13 20  1  0
 12 20  2  0
 20 10  1  0
 10  9  1  0
 10 14  1  0
  9 24  1  0
 22 17  2  0
 22 16  1  0
 17 23  1  0
 24 16  1  0
 16  8  2  0
 23  7  2  0
  8  7  1  0
  7  1  1  0
  1  3  1  0
  1  2  2  0
  3  5  2  0
  2  4  1  0
  5  6  1  0
  4  6  2  0
  4 26  1  0
  6 25  1  0
 26 15  1  0
 25 21  1  0
 15 21  1  0
  2 27  1  0
  3 28  1  0
  5 29  1  0
  8 30  1  0
  9 31  1  0
  9 32  1  0
 10 33  1  6
 11 45  1  0
 12 34  1  0
 13 35  1  0
 14 36  1  0
 15 37  1  0
 15 38  1  0
 17 39  1  0
 18 40  1  0
 19 41  1  0
 21 42  1  0
 21 43  1  0
 24 44  1  0
M  END
