
     RDKit          3D

 42 45  0  0  0  0  0  0  0  0999 V2000
    1.9211    2.8658    0.0913 C   0  0  0  0  0  0  0  0  0  0  0  0
    1.6282    1.5051    0.0661 C   0  0  0  0  0  0  0  0  0  0  0  0
    0.2559    1.4281    0.1619 N   0  0  0  0  0  0  0  0  0  0  0  0
   -0.3382    2.6245    0.2401 N   0  0  0  0  0  0  0  0  0  0  0  0
    0.6697    3.4819    0.1940 C   0  0  0  0  0  0  0  0  0  0  0  0
    2.3978    0.4186   -0.0206 N   0  0  0  0  0  0  0  0  0  0  0  0
    1.7897   -0.7514    0.0113 C   0  0  0  0  0  0  0  0  0  0  0  0
    0.3935   -0.8926    0.1359 C   0  0  0  0  0  0  0  0  0  0  0  0
   -0.4027    0.2373    0.2009 C   0  0  0  0  0  0  0  0  0  0  0  0
   -1.7325    0.2831    0.2910 N   0  0  0  0  0  0  0  0  0  0  0  0
    2.6576   -1.9479   -0.0740 C   0  0  0  0  0  0  0  0  0  0  0  0
   -2.5557   -0.8999    0.4249 C   0  0  0  0  0  0  0  0  0  0  0  0
   -3.9917   -0.5642    0.1483 C   0  0  0  0  0  0  0  0  0  0  0  0
   -4.9589   -0.7006    1.1355 C   0  0  0  0  0  0  0  0  0  0  0  0
   -6.2454   -0.4274    0.9535 N   0  0  0  0  0  0  0  0  0  0  0  0
   -6.6231    0.0064   -0.2417 C   0  0  0  0  0  0  0  0  0  0  0  0
   -5.7411    0.1846   -1.2995 C   0  0  0  0  0  0  0  0  0  0  0  0
   -4.4032   -0.1070   -1.0994 C   0  0  0  0  0  0  0  0  0  0  0  0
    4.0172   -1.8397    0.2265 C   0  0  0  0  0  0  0  0  0  0  0  0
    4.8480   -2.9461    0.1535 C   0  0  0  0  0  0  0  0  0  0  0  0
    4.3377   -4.1808   -0.2284 C   0  0  0  0  0  0  0  0  0  0  0  0
    2.9898   -4.2981   -0.5377 C   0  0  0  0  0  0  0  0  0  0  0  0
    2.1565   -3.1917   -0.4597 C   0  0  0  0  0  0  0  0  0  0  0  0
    3.2607    3.4957   -0.0172 C   0  0  0  0  0  0  0  0  0  0  0  0
    3.6366    3.5724   -1.3810 O   0  0  0  0  0  0  0  0  0  0  0  0
    0.4686    4.5426    0.2435 H   0  0  0  0  0  0  0  0  0  0  0  0
   -0.0625   -1.8664    0.2159 H   0  0  0  0  0  0  0  0  0  0  0  0
   -2.1468    1.1815    0.4949 H   0  0  0  0  0  0  0  0  0  0  0  0
   -2.2145   -1.6513   -0.2910 H   0  0  0  0  0  0  0  0  0  0  0  0
   -2.4571   -1.3378    1.4229 H   0  0  0  0  0  0  0  0  0  0  0  0
   -4.6728   -1.0509    2.1228 H   0  0  0  0  0  0  0  0  0  0  0  0
   -7.6777    0.2235   -0.3691 H   0  0  0  0  0  0  0  0  0  0  0  0
   -6.1007    0.5398   -2.2551 H   0  0  0  0  0  0  0  0  0  0  0  0
   -3.6871    0.0146   -1.9031 H   0  0  0  0  0  0  0  0  0  0  0  0
    4.4203   -0.8815    0.5250 H   0  0  0  0  0  0  0  0  0  0  0  0
    5.8976   -2.8448    0.3969 H   0  0  0  0  0  0  0  0  0  0  0  0
    4.9878   -5.0439   -0.2863 H   0  0  0  0  0  0  0  0  0  0  0  0
    2.5833   -5.2522   -0.8461 H   0  0  0  0  0  0  0  0  0  0  0  0
    1.1139   -3.3089   -0.7244 H   0  0  0  0  0  0  0  0  0  0  0  0
    3.2246    4.4906    0.4421 H   0  0  0  0  0  0  0  0  0  0  0  0
    3.9859    2.9085    0.5582 H   0  0  0  0  0  0  0  0  0  0  0  0
    4.5110    3.9728   -1.4188 H   0  0  0  0  0  0  0  0  0  0  0  0
 15 16  1  0
 15 14  2  0
 16 17  2  0
 14 13  1  0
 17 18  1  0
 13 18  2  0
 13 12  1  0
 10 12  1  0
 10  9  1  0
  4  5  2  0
  4  3  1  0
  5  1  1  0
  9  3  1  0
  9  8  2  0
  3  2  1  0
  1  2  2  0
  1 24  1  0
  8  7  1  0
  2  6  1  0
 24 25  1  0
  7  6  2  0
  7 11  1  0
 11 19  2  0
 11 23  1  0
 19 20  1  0
 23 22  2  0
 20 21  2  0
 22 21  1  0
  5 26  1  0
  8 27  1  0
 10 28  1  0
 12 29  1  0
 12 30  1  0
 14 31  1  0
 16 32  1  0
 17 33  1  0
 18 34  1  0
 19 35  1  0
 20 36  1  0
 21 37  1  0
 22 38  1  0
 23 39  1  0
 24 40  1  0
 24 41  1  0
 25 42  1  0
M  END
