
     RDKit          3D

 79 83  0  0  0  0  0  0  0  0999 V2000
   -6.4636   -1.3780    0.0418 C   0  0  0  0  0  0  0  0  0  0  0  0
   -7.8560   -1.5226   -0.5553 C   0  0  0  0  0  0  0  0  0  0  0  0
   -7.7856   -2.2470   -1.8116 N   0  0  0  0  0  0  0  0  0  0  0  0
   -6.9823   -1.5383   -2.7915 C   0  0  0  0  0  0  0  0  0  0  0  0
   -5.5548   -1.3915   -2.2856 C   0  0  0  0  0  0  0  0  0  0  0  0
   -5.5281   -0.6731   -0.9372 C   0  0  2  0  0  0  0  0  0  0  0  0
   -4.0955   -0.5873   -0.4265 C   0  0  0  0  0  0  0  0  0  0  0  0
   -3.9569    0.0758    0.8725 N   0  0  0  0  0  0  0  0  0  0  0  0
   -3.7039   -0.7228    2.0742 C   0  0  0  0  0  0  0  0  0  0  0  0
   -2.2499   -0.9224    2.4246 C   0  0  0  0  0  0  0  0  0  0  0  0
   -1.7166   -0.3248    3.5625 C   0  0  0  0  0  0  0  0  0  0  0  0
   -0.3781   -0.4912    3.8949 C   0  0  0  0  0  0  0  0  0  0  0  0
    0.4445   -1.2691    3.0929 C   0  0  0  0  0  0  0  0  0  0  0  0
   -0.0844   -1.8896    1.9679 C   0  0  0  0  0  0  0  0  0  0  0  0
   -1.4198   -1.7161    1.6356 C   0  0  0  0  0  0  0  0  0  0  0  0
   -3.7041    1.6917    0.8935 S   0  0  1  0  0  0  0  0  0  0  0  0
   -4.5806    2.2971   -0.0954 O   0  0  0  0  0  0  0  0  0  0  0  0
   -3.7585    2.1276    2.2783 O   0  0  0  0  0  0  0  0  0  0  0  0
   -2.0413    1.9429    0.3086 C   0  0  0  0  0  0  0  0  0  0  0  0
   -1.8041    2.0605   -1.0544 C   0  0  0  0  0  0  0  0  0  0  0  0
   -0.4987    2.1447   -1.5128 C   0  0  0  0  0  0  0  0  0  0  0  0
   -0.9996    1.9808    1.2248 C   0  0  0  0  0  0  0  0  0  0  0  0
    0.3022    2.0711    0.7688 C   0  0  0  0  0  0  0  0  0  0  0  0
    0.5431    2.1224   -0.5987 C   0  0  0  0  0  0  0  0  0  0  0  0
    2.2191    2.0363   -1.1804 S   0  0  1  0  0  0  0  0  0  0  0  0
    2.2144    2.3885   -2.5892 O   0  0  0  0  0  0  0  0  0  0  0  0
    3.0533    2.7881   -0.2572 O   0  0  0  0  0  0  0  0  0  0  0  0
    2.6507    0.4521   -1.0535 N   0  0  0  0  0  0  0  0  0  0  0  0
    2.0405   -0.5079   -1.9938 C   0  0  2  0  0  0  0  0  0  0  0  0
    0.6677   -1.0588   -1.5311 C   0  0  0  0  0  0  0  0  0  0  0  0
    0.7485   -2.5790   -1.6936 C   0  0  0  0  0  0  0  0  0  0  0  0
    2.2244   -2.8916   -1.4666 C   0  0  0  0  0  0  0  0  0  0  0  0
    2.9242   -1.7571   -2.2089 C   0  0  0  0  0  0  0  0  0  0  0  0
    3.0723   -0.0410    0.2526 C   0  0  0  0  0  0  0  0  0  0  0  0
    4.5174   -0.4703    0.2949 C   0  0  0  0  0  0  0  0  0  0  0  0
    4.8845   -1.5901    1.0309 C   0  0  0  0  0  0  0  0  0  0  0  0
    6.2109   -1.9883    1.1199 C   0  0  0  0  0  0  0  0  0  0  0  0
    7.1780   -1.2495    0.4593 C   0  0  0  0  0  0  0  0  0  0  0  0
    8.8387   -1.7401    0.5508 Cl  0  0  0  0  0  0  0  0  0  0  0  0
    6.8381   -0.1253   -0.2782 C   0  0  0  0  0  0  0  0  0  0  0  0
    5.5088    0.2592   -0.3530 C   0  0  0  0  0  0  0  0  0  0  0  0
   -6.5284   -0.8209    0.9794 H   0  0  0  0  0  0  0  0  0  0  0  0
   -6.0693   -2.3729    0.2789 H   0  0  0  0  0  0  0  0  0  0  0  0
   -8.5028   -2.0702    0.1333 H   0  0  0  0  0  0  0  0  0  0  0  0
   -8.2940   -0.5169   -0.6742 H   0  0  0  0  0  0  0  0  0  0  0  0
   -8.7193   -2.3817   -2.1765 H   0  0  0  0  0  0  0  0  0  0  0  0
   -6.9897   -2.0992   -3.7286 H   0  0  0  0  0  0  0  0  0  0  0  0
   -7.3824   -0.5353   -3.0152 H   0  0  0  0  0  0  0  0  0  0  0  0
   -5.1064   -2.3857   -2.1827 H   0  0  0  0  0  0  0  0  0  0  0  0
   -4.9599   -0.8442   -3.0218 H   0  0  0  0  0  0  0  0  0  0  0  0
   -5.8994    0.3459   -1.0920 H   0  0  0  0  0  0  0  0  0  0  0  0
   -3.6852   -1.5926   -0.3167 H   0  0  0  0  0  0  0  0  0  0  0  0
   -3.4631   -0.1008   -1.1754 H   0  0  0  0  0  0  0  0  0  0  0  0
   -4.2369   -0.2868    2.9175 H   0  0  0  0  0  0  0  0  0  0  0  0
   -4.1749   -1.6885    1.8881 H   0  0  0  0  0  0  0  0  0  0  0  0
   -2.3524    0.2877    4.1906 H   0  0  0  0  0  0  0  0  0  0  0  0
    0.0198   -0.0127    4.7803 H   0  0  0  0  0  0  0  0  0  0  0  0
    1.4870   -1.4052    3.3508 H   0  0  0  0  0  0  0  0  0  0  0  0
    0.5421   -2.5264    1.3541 H   0  0  0  0  0  0  0  0  0  0  0  0
   -1.8142   -2.2179    0.7592 H   0  0  0  0  0  0  0  0  0  0  0  0
   -2.6155    2.0870   -1.7680 H   0  0  0  0  0  0  0  0  0  0  0  0
   -0.3119    2.2174   -2.5749 H   0  0  0  0  0  0  0  0  0  0  0  0
   -1.1855    1.9377    2.2872 H   0  0  0  0  0  0  0  0  0  0  0  0
    1.1089    2.0972    1.4878 H   0  0  0  0  0  0  0  0  0  0  0  0
    1.9429    0.0152   -2.9422 H   0  0  0  0  0  0  0  0  0  0  0  0
    0.4891   -0.8029   -0.4838 H   0  0  0  0  0  0  0  0  0  0  0  0
   -0.1563   -0.6239   -2.0955 H   0  0  0  0  0  0  0  0  0  0  0  0
    0.0799   -3.1090   -1.0121 H   0  0  0  0  0  0  0  0  0  0  0  0
    0.4640   -2.8668   -2.7087 H   0  0  0  0  0  0  0  0  0  0  0  0
    2.4581   -2.8676   -0.3970 H   0  0  0  0  0  0  0  0  0  0  0  0
    2.5187   -3.8754   -1.8330 H   0  0  0  0  0  0  0  0  0  0  0  0
    2.9281   -1.9840   -3.2768 H   0  0  0  0  0  0  0  0  0  0  0  0
    3.9618   -1.6037   -1.9185 H   0  0  0  0  0  0  0  0  0  0  0  0
    2.9249    0.7203    1.0195 H   0  0  0  0  0  0  0  0  0  0  0  0
    2.4283   -0.8733    0.5478 H   0  0  0  0  0  0  0  0  0  0  0  0
    4.1305   -2.1735    1.5464 H   0  0  0  0  0  0  0  0  0  0  0  0
    6.4792   -2.8674    1.6896 H   0  0  0  0  0  0  0  0  0  0  0  0
    7.5994    0.4468   -0.7909 H   0  0  0  0  0  0  0  0  0  0  0  0
    5.2488    1.1343   -0.9333 H   0  0  0  0  0  0  0  0  0  0  0  0
 14 13  2  0
 14 15  1  0
 13 12  1  0
 15 10  2  0
 17 16  2  0
 31 32  1  0
 31 30  1  0
 12 11  2  0
 18 16  2  0
 10 11  1  0
 10  9  1  0
 16  8  1  1
 16 19  1  0
 32 33  1  0
  8  9  1  0
  8  7  1  0
 30 29  1  0
 22 19  1  0
 22 23  2  0
 19 20  2  0
  5  4  1  0
  5  6  1  0
 29 33  1  0
 29 28  1  0
  4  3  1  0
 23 24  1  0
 20 21  1  0
  7  6  1  0
  6  1  1  0
 34 28  1  0
 34 35  1  0
 24 21  2  0
 24 25  1  0
 25 28  1  6
  3  2  1  0
 36 35  2  0
 36 37  1  0
 35 41  1  0
  1  2  1  0
 25 27  2  0
 25 26  2  0
 37 38  2  0
 41 40  2  0
 38 40  1  0
 38 39  1  0
  1 42  1  0
  1 43  1  0
  2 44  1  0
  2 45  1  0
  3 46  1  0
  4 47  1  0
  4 48  1  0
  5 49  1  0
  5 50  1  0
  6 51  1  6
  7 52  1  0
  7 53  1  0
  9 54  1  0
  9 55  1  0
 11 56  1  0
 12 57  1  0
 13 58  1  0
 14 59  1  0
 15 60  1  0
 20 61  1  0
 21 62  1  0
 22 63  1  0
 23 64  1  0
 29 65  1  6
 30 66  1  0
 30 67  1  0
 31 68  1  0
 31 69  1  0
 32 70  1  0
 32 71  1  0
 33 72  1  0
 33 73  1  0
 34 74  1  0
 34 75  1  0
 36 76  1  0
 37 77  1  0
 40 78  1  0
 41 79  1  0
M  END
