
     RDKit          3D

 49 52  0  0  0  0  0  0  0  0999 V2000
    0.9734    2.3436   -0.3928 C   0  0  0  0  0  0  0  0  0  0  0  0
    1.7731    3.5276   -0.3965 C   0  0  0  0  0  0  0  0  0  0  0  0
    3.0254    3.5445    0.1870 C   0  0  0  0  0  0  0  0  0  0  0  0
    1.3325    4.6483   -0.9845 O   0  0  0  0  0  0  0  0  0  0  0  0
    2.6320    1.2352    0.9289 C   0  0  0  0  0  0  0  0  0  0  0  0
    3.4432    2.3797    0.8352 C   0  0  0  0  0  0  0  0  0  0  0  0
    3.3977    0.3028    1.6911 C   0  0  0  0  0  0  0  0  0  0  0  0
    2.9921   -1.0682    2.1245 C   0  0  0  0  0  0  0  0  0  0  0  0
    2.3506   -1.8678    1.0160 C   0  0  0  0  0  0  0  0  0  0  0  0
    1.0454   -2.3346    1.1384 C   0  0  0  0  0  0  0  0  0  0  0  0
    0.4489   -3.0607    0.1143 C   0  0  0  0  0  0  0  0  0  0  0  0
    3.0493   -2.1399   -0.1584 C   0  0  0  0  0  0  0  0  0  0  0  0
    0.0516    0.1783   -2.1229 C   0  0  0  0  0  0  0  0  0  0  0  0
   -2.2243    1.0517   -1.8851 C   0  0  0  0  0  0  0  0  0  0  0  0
   -2.6119   -0.4012    0.1271 C   0  0  0  0  0  0  0  0  0  0  0  0
   -2.9783   -1.5945    0.7259 C   0  0  0  0  0  0  0  0  0  0  0  0
    1.3926    1.2258    0.3015 C   0  0  0  0  0  0  0  0  0  0  0  0
   -0.3632    2.3680   -1.0341 C   0  0  0  0  0  0  0  0  0  0  0  0
   -0.8074    1.2360   -1.6153 N   0  0  0  0  0  0  0  0  0  0  0  0
   -1.0396    3.4022   -0.9953 O   0  0  0  0  0  0  0  0  0  0  0  0
    4.5752    2.0733    1.4996 N   0  0  0  0  0  0  0  0  0  0  0  0
    4.5509    0.8279    2.0096 N   0  0  0  0  0  0  0  0  0  0  0  0
    1.1548   -3.3300   -1.0491 C   0  0  0  0  0  0  0  0  0  0  0  0
    2.4585   -2.8660   -1.1822 C   0  0  0  0  0  0  0  0  0  0  0  0
   -2.6938   -0.2350   -1.2535 C   0  0  0  0  0  0  0  0  0  0  0  0
   -3.4336   -2.6349   -0.0715 C   0  0  0  0  0  0  0  0  0  0  0  0
   -3.5334   -2.4946   -1.4446 C   0  0  0  0  0  0  0  0  0  0  0  0
   -3.1590   -1.2901   -2.0266 C   0  0  0  0  0  0  0  0  0  0  0  0
   -3.8616   -4.1450    0.6667 Cl  0  0  0  0  0  0  0  0  0  0  0  0
    3.6334    4.4395    0.1633 H   0  0  0  0  0  0  0  0  0  0  0  0
    0.3704    4.5587   -1.1248 H   0  0  0  0  0  0  0  0  0  0  0  0
    3.8710   -1.5896    2.5109 H   0  0  0  0  0  0  0  0  0  0  0  0
    2.2876   -0.9860    2.9572 H   0  0  0  0  0  0  0  0  0  0  0  0
    0.4852   -2.1211    2.0415 H   0  0  0  0  0  0  0  0  0  0  0  0
   -0.5701   -3.4079    0.2261 H   0  0  0  0  0  0  0  0  0  0  0  0
    4.0648   -1.7794   -0.2770 H   0  0  0  0  0  0  0  0  0  0  0  0
    0.0634   -0.7034   -1.4820 H   0  0  0  0  0  0  0  0  0  0  0  0
   -0.3221   -0.1256   -3.1018 H   0  0  0  0  0  0  0  0  0  0  0  0
    1.0700    0.5306   -2.2520 H   0  0  0  0  0  0  0  0  0  0  0  0
   -2.7750    1.9002   -1.4830 H   0  0  0  0  0  0  0  0  0  0  0  0
   -2.4008    1.0308   -2.9639 H   0  0  0  0  0  0  0  0  0  0  0  0
   -2.9055   -1.7144    1.7984 H   0  0  0  0  0  0  0  0  0  0  0  0
    0.7581    0.3521    0.3624 H   0  0  0  0  0  0  0  0  0  0  0  0
    5.3852    2.6530    1.6445 H   0  0  0  0  0  0  0  0  0  0  0  0
    0.6906   -3.8904   -1.8502 H   0  0  0  0  0  0  0  0  0  0  0  0
    3.0161   -3.0685   -2.0877 H   0  0  0  0  0  0  0  0  0  0  0  0
   -3.8868   -3.3119   -2.0584 H   0  0  0  0  0  0  0  0  0  0  0  0
   -3.2234   -1.1843   -3.1027 H   0  0  0  0  0  0  0  0  0  0  0  0
   -2.2507    0.4080    0.7512 H   0  0  0  0  0  0  0  0  0  0  0  0
 13 19  1  0
 20 18  2  0
 19 18  1  0
 19 14  1  0
 18  1  1  0
 11 23  1  0
 11 10  2  0
 23 24  2  0
 15 16  2  0
 15 25  1  0
 14 25  1  0
 16 26  1  0
  1 17  1  0
  1  2  2  0
 10  9  1  0
  4  2  1  0
 25 28  2  0
 17  5  2  0
 24 12  1  0
  2  3  1  0
  9 12  2  0
  9  8  1  0
 26 29  1  0
 26 27  2  0
 28 27  1  0
  5  6  1  0
  5  7  1  0
  3  6  2  0
  8  7  1  0
  6 21  1  0
  7 22  2  0
 21 22  1  0
  3 30  1  0
  4 31  1  0
  8 32  1  0
  8 33  1  0
 10 34  1  0
 11 35  1  0
 12 36  1  0
 13 37  1  0
 13 38  1  0
 13 39  1  0
 14 40  1  0
 14 41  1  0
 15 49  1  0
 16 42  1  0
 17 43  1  0
 21 44  1  0
 23 45  1  0
 24 46  1  0
 27 47  1  0
 28 48  1  0
M  END
