
     RDKit          3D

 54 58  0  0  0  0  0  0  0  0999 V2000
    2.0355   -0.7661    0.1564 C   0  0  0  0  0  0  0  0  0  0  0  0
    2.5593    0.2626   -0.8352 C   0  0  0  0  0  0  0  0  0  0  0  0
    2.1738   -1.9554    0.0051 O   0  0  0  0  0  0  0  0  0  0  0  0
   -0.3968   -1.6393    1.9956 C   0  0  0  0  0  0  0  0  0  0  0  0
   -2.4724   -1.6029    0.7089 C   0  0  0  0  0  0  0  0  0  0  0  0
   -3.4385   -0.6416    0.4657 C   0  0  0  0  0  0  0  0  0  0  0  0
   -4.7194   -1.0815    0.1510 C   0  0  0  0  0  0  0  0  0  0  0  0
   -5.0640   -2.4456    0.1042 C   0  0  0  0  0  0  0  0  0  0  0  0
   -4.0667   -3.3935    0.3531 C   0  0  0  0  0  0  0  0  0  0  0  0
   -2.7847   -2.9740    0.6404 C   0  0  0  0  0  0  0  0  0  0  0  0
   -6.4580   -2.5132   -0.2126 C   0  0  0  0  0  0  0  0  0  0  0  0
   -6.8953   -1.2319   -0.3393 C   0  0  0  0  0  0  0  0  0  0  0  0
   -5.9518    1.0465   -0.1447 C   0  0  0  0  0  0  0  0  0  0  0  0
    5.5698    1.0847   -0.5015 C   0  0  0  0  0  0  0  0  0  0  0  0
    6.1847    2.2075   -1.0514 C   0  0  0  0  0  0  0  0  0  0  0  0
    6.7333    3.1821   -0.2347 C   0  0  0  0  0  0  0  0  0  0  0  0
    6.6744    3.0407    1.1446 C   0  0  0  0  0  0  0  0  0  0  0  0
    6.0774    1.9245    1.7108 C   0  0  0  0  0  0  0  0  0  0  0  0
    5.5340    0.9550    0.8847 C   0  0  0  0  0  0  0  0  0  0  0  0
    3.7106   -0.2331   -1.5387 N   0  0  0  0  0  0  0  0  0  0  0  0
    3.5965   -1.1260   -2.5093 N   0  0  0  0  0  0  0  0  0  0  0  0
    4.7704   -1.3454   -2.9478 N   0  0  0  0  0  0  0  0  0  0  0  0
    5.6733   -0.6173   -2.2924 N   0  0  0  0  0  0  0  0  0  0  0  0
    5.0077    0.0788   -1.4046 C   0  0  0  0  0  0  0  0  0  0  0  0
    1.3417   -0.2100    1.1817 N   0  0  0  0  0  0  0  0  0  0  0  0
    0.8080   -0.9883    2.1632 N   0  0  0  0  0  0  0  0  0  0  0  0
   -0.7230   -2.5319    2.7556 O   0  0  0  0  0  0  0  0  0  0  0  0
   -1.1582   -1.1736    0.9709 N   0  0  0  0  0  0  0  0  0  0  0  0
   -5.8517   -0.3573   -0.1266 N   0  0  0  0  0  0  0  0  0  0  0  0
    4.8336   -0.4567    1.5971 Cl  0  0  0  0  0  0  0  0  0  0  0  0
   -5.3552    1.7954   -1.1571 C   0  0  0  0  0  0  0  0  0  0  0  0
   -5.4515    3.1784   -1.1648 C   0  0  0  0  0  0  0  0  0  0  0  0
   -6.1654    3.8198   -0.1636 C   0  0  0  0  0  0  0  0  0  0  0  0
   -6.7757    3.0842    0.8427 C   0  0  0  0  0  0  0  0  0  0  0  0
   -6.6604    1.7032    0.8540 C   0  0  0  0  0  0  0  0  0  0  0  0
   -4.5084    0.9965   -2.4313 Cl  0  0  0  0  0  0  0  0  0  0  0  0
    1.7738    0.4727   -1.5625 H   0  0  0  0  0  0  0  0  0  0  0  0
    2.8194    1.2083   -0.3617 H   0  0  0  0  0  0  0  0  0  0  0  0
   -3.1985    0.4132    0.5262 H   0  0  0  0  0  0  0  0  0  0  0  0
   -4.2902   -4.4520    0.3107 H   0  0  0  0  0  0  0  0  0  0  0  0
   -2.0087   -3.7079    0.8015 H   0  0  0  0  0  0  0  0  0  0  0  0
   -7.0571   -3.4012   -0.3356 H   0  0  0  0  0  0  0  0  0  0  0  0
   -7.8761   -0.8528   -0.5788 H   0  0  0  0  0  0  0  0  0  0  0  0
    6.2217    2.3152   -2.1272 H   0  0  0  0  0  0  0  0  0  0  0  0
    7.2028    4.0505   -0.6750 H   0  0  0  0  0  0  0  0  0  0  0  0
    7.0989    3.7990    1.7886 H   0  0  0  0  0  0  0  0  0  0  0  0
    6.0411    1.8042    2.7846 H   0  0  0  0  0  0  0  0  0  0  0  0
    1.3702    0.7843    1.3555 H   0  0  0  0  0  0  0  0  0  0  0  0
    1.4639   -1.4390    2.7867 H   0  0  0  0  0  0  0  0  0  0  0  0
   -0.8766   -0.3101    0.5315 H   0  0  0  0  0  0  0  0  0  0  0  0
   -4.9810    3.7470   -1.9551 H   0  0  0  0  0  0  0  0  0  0  0  0
   -6.2445    4.8985   -0.1758 H   0  0  0  0  0  0  0  0  0  0  0  0
   -7.3307    3.5841    1.6245 H   0  0  0  0  0  0  0  0  0  0  0  0
   -7.1151    1.1195    1.6439 H   0  0  0  0  0  0  0  0  0  0  0  0
 11 12  2  0
 11  8  1  0
 12 29  1  0
  9  8  2  0
  9 10  1  0
  8  7  1  0
 36 31  1  0
 29  7  1  0
 29 13  1  0
 10  5  2  0
  7  6  2  0
 31 13  2  0
 31 32  1  0
 13 35  1  0
  5  6  1  0
  5 28  1  0
 32 33  2  0
 35 34  2  0
 28  4  1  0
 33 34  1  0
  4 27  2  0
  4 26  1  0
 30 19  1  0
 26 25  1  0
  2 20  1  0
  2  1  1  0
 19 18  2  0
 19 14  1  0
 18 17  1  0
 25  1  1  0
 20 21  1  0
 20 24  1  0
 21 22  2  0
  1  3  2  0
 24 14  1  0
 24 23  2  0
 14 15  2  0
 22 23  1  0
 17 16  2  0
 15 16  1  0
  2 37  1  0
  2 38  1  0
  6 39  1  0
  9 40  1  0
 10 41  1  0
 11 42  1  0
 12 43  1  0
 15 44  1  0
 16 45  1  0
 17 46  1  0
 18 47  1  0
 25 48  1  0
 26 49  1  0
 28 50  1  0
 32 51  1  0
 33 52  1  0
 34 53  1  0
 35 54  1  0
M  END
