
     RDKit          3D

 62 66  0  0  0  0  0  0  0  0999 V2000
    2.8895    2.4606   -0.0760 O   0  0  0  0  0  0  0  0  0  0  0  0
    3.5920    1.5043    0.1329 C   0  0  0  0  0  0  0  0  0  0  0  0
    4.8248    1.5305    0.5681 O   0  0  0  0  0  0  0  0  0  0  0  0
    5.5079    2.7993    0.7208 C   0  0  1  0  0  0  0  0  0  0  0  0
    6.6747    2.5193    1.6436 C   0  0  0  0  0  0  0  0  0  0  0  0
    5.9520    3.3286   -0.6289 C   0  0  0  0  0  0  0  0  0  0  0  0
    3.1436    0.1970   -0.0440 N   0  0  0  0  0  0  0  0  0  0  0  0
    3.8952   -1.0040    0.0106 C   0  0  0  0  0  0  0  0  0  0  0  0
    5.3460   -1.0830   -0.0144 C   0  0  0  0  0  0  0  0  0  0  0  0
    6.2668   -0.5239   -0.9215 C   0  0  0  0  0  0  0  0  0  0  0  0
    7.4985   -0.8999   -0.6471 N   0  0  0  0  0  0  0  0  0  0  0  0
    7.4012   -1.6942    0.4158 N   0  0  0  0  0  0  0  0  0  0  0  0
    8.5890   -2.2480    1.0184 C   0  0  0  0  0  0  0  0  0  0  0  0
    6.1329   -1.8344    0.8322 C   0  0  0  0  0  0  0  0  0  0  0  0
    3.0372   -2.0507    0.0057 C   0  0  0  0  0  0  0  0  0  0  0  0
    1.7051   -1.5344   -0.0559 C   0  0  0  0  0  0  0  0  0  0  0  0
    1.7956   -0.1306   -0.1053 C   0  0  0  0  0  0  0  0  0  0  0  0
    0.6546    0.6431   -0.1766 C   0  0  0  0  0  0  0  0  0  0  0  0
   -0.5653   -0.0505   -0.2017 C   0  0  0  0  0  0  0  0  0  0  0  0
   -0.6616   -1.3787   -0.1585 N   0  0  0  0  0  0  0  0  0  0  0  0
    0.4443   -2.1029   -0.0866 C   0  0  0  0  0  0  0  0  0  0  0  0
   -1.7134    0.7023   -0.2869 N   0  0  0  0  0  0  0  0  0  0  0  0
   -3.0509    0.3474   -0.2841 C   0  0  0  0  0  0  0  0  0  0  0  0
   -3.9739    1.3800   -0.5072 C   0  0  0  0  0  0  0  0  0  0  0  0
   -5.3327    1.1416   -0.5047 C   0  0  0  0  0  0  0  0  0  0  0  0
   -5.8424   -0.1383   -0.2670 C   0  0  0  0  0  0  0  0  0  0  0  0
   -4.9199   -1.1603   -0.0486 C   0  0  0  0  0  0  0  0  0  0  0  0
   -3.5516   -0.9399   -0.0617 C   0  0  0  0  0  0  0  0  0  0  0  0
   -7.2709   -0.4360   -0.2917 C   0  0  0  0  0  0  0  0  0  0  0  0
   -7.9416   -1.4881   -0.8569 C   0  0  0  0  0  0  0  0  0  0  0  0
   -9.2830   -1.3711   -0.6514 N   0  0  0  0  0  0  0  0  0  0  0  0
   -9.4446   -0.2648    0.0337 C   0  0  0  0  0  0  0  0  0  0  0  0
  -10.7465    0.2806    0.4988 C   0  0  0  0  0  0  0  0  0  0  0  0
   -8.2555    0.3401    0.2799 N   0  0  0  0  0  0  0  0  0  0  0  0
   -8.0748    1.5471    1.0541 C   0  0  0  0  0  0  0  0  0  0  0  0
    4.8236    3.5062    1.1955 H   0  0  0  0  0  0  0  0  0  0  0  0
    7.3642    1.8002    1.1987 H   0  0  0  0  0  0  0  0  0  0  0  0
    7.2200    3.4449    1.8257 H   0  0  0  0  0  0  0  0  0  0  0  0
    6.3408    2.1323    2.6062 H   0  0  0  0  0  0  0  0  0  0  0  0
    6.6365    2.6333   -1.1170 H   0  0  0  0  0  0  0  0  0  0  0  0
    5.1130    3.5218   -1.2960 H   0  0  0  0  0  0  0  0  0  0  0  0
    6.4788    4.2725   -0.4871 H   0  0  0  0  0  0  0  0  0  0  0  0
    3.3288   -3.0891   -0.0053 H   0  0  0  0  0  0  0  0  0  0  0  0
    6.0670    0.1255   -1.7605 H   0  0  0  0  0  0  0  0  0  0  0  0
    5.8735   -2.4338    1.6905 H   0  0  0  0  0  0  0  0  0  0  0  0
    9.1666   -1.4723    1.5185 H   0  0  0  0  0  0  0  0  0  0  0  0
    8.3001   -2.9978    1.7488 H   0  0  0  0  0  0  0  0  0  0  0  0
    9.2065   -2.7183    0.2568 H   0  0  0  0  0  0  0  0  0  0  0  0
    0.3184   -3.1798   -0.0523 H   0  0  0  0  0  0  0  0  0  0  0  0
    0.6734    1.7204   -0.2210 H   0  0  0  0  0  0  0  0  0  0  0  0
   -1.5526    1.6933   -0.3740 H   0  0  0  0  0  0  0  0  0  0  0  0
   -3.6162    2.3853   -0.6984 H   0  0  0  0  0  0  0  0  0  0  0  0
   -2.8785   -1.7628    0.1097 H   0  0  0  0  0  0  0  0  0  0  0  0
   -6.0005    1.9680   -0.7120 H   0  0  0  0  0  0  0  0  0  0  0  0
   -5.2774   -2.1626    0.1529 H   0  0  0  0  0  0  0  0  0  0  0  0
   -7.5158   -2.3072   -1.4174 H   0  0  0  0  0  0  0  0  0  0  0  0
  -10.7986    0.3484    1.5874 H   0  0  0  0  0  0  0  0  0  0  0  0
  -10.9378    1.2786    0.1004 H   0  0  0  0  0  0  0  0  0  0  0  0
  -11.5474   -0.3757    0.1663 H   0  0  0  0  0  0  0  0  0  0  0  0
   -8.0972    2.4365    0.4251 H   0  0  0  0  0  0  0  0  0  0  0  0
   -8.8652    1.6290    1.7958 H   0  0  0  0  0  0  0  0  0  0  0  0
   -7.1240    1.5132    1.5798 H   0  0  0  0  0  0  0  0  0  0  0  0
  1  2  2  0
  2  3  1  0
  2  7  1  0
  3  4  1  0
  4  5  1  0
  4  6  1  0
  7  8  1  0
  7 17  1  0
  8  9  1  0
  8 15  2  0
  9 10  1  0
  9 14  2  0
 10 11  2  0
 11 12  1  0
 12 13  1  0
 12 14  1  0
 15 16  1  0
 16 17  2  0
 16 21  1  0
 17 18  1  0
 18 19  2  0
 19 20  1  0
 19 22  1  0
 20 21  2  0
 22 23  1  0
 23 24  2  0
 23 28  1  0
 24 25  1  0
 25 26  2  0
 26 27  1  0
 26 29  1  0
 27 28  2  0
 29 30  2  0
 29 34  1  0
 30 31  1  0
 31 32  2  0
 32 33  1  0
 32 34  1  0
 34 35  1  0
  4 36  1  1
  5 37  1  0
  5 38  1  0
  5 39  1  0
  6 40  1  0
  6 41  1  0
  6 42  1  0
 15 43  1  0
 10 44  1  0
 14 45  1  0
 13 46  1  0
 13 47  1  0
 13 48  1  0
 21 49  1  0
 18 50  1  0
 22 51  1  0
 24 52  1  0
 28 53  1  0
 25 54  1  0
 27 55  1  0
 30 56  1  0
 33 57  1  0
 33 58  1  0
 33 59  1  0
 35 60  1  0
 35 61  1  0
 35 62  1  0
M  END
