
     RDKit          3D

 53 56  0  0  0  0  0  0  0  0999 V2000
   -7.8952   -1.6629    1.2793 S   0  0  0  0  0  0  0  0  0  0  0  0
   -8.7220   -3.1414    1.0540 C   0  0  0  0  0  0  0  0  0  0  0  0
   -8.0768   -3.9518    0.1674 C   0  0  0  0  0  0  0  0  0  0  0  0
   -6.8926   -3.3645   -0.3422 C   0  0  0  0  0  0  0  0  0  0  0  0
   -6.6619   -2.1161    0.1619 C   0  0  0  0  0  0  0  0  0  0  0  0
   -5.5199   -1.2406   -0.1414 C   0  0  0  0  0  0  0  0  0  0  0  0
   -5.7788    0.1008    0.0731 N   0  0  0  0  0  0  0  0  0  0  0  0
   -4.4374   -1.7732   -0.5474 N   0  0  0  0  0  0  0  0  0  0  0  0
   -4.8407    1.1322   -0.0264 C   0  0  0  0  0  0  0  0  0  0  0  0
   -5.2018    2.3209   -0.6565 C   0  0  0  0  0  0  0  0  0  0  0  0
   -4.3012    3.3721   -0.7218 C   0  0  0  0  0  0  0  0  0  0  0  0
   -3.0300    3.2475   -0.1821 C   0  0  0  0  0  0  0  0  0  0  0  0
   -2.6603    2.0650    0.4527 C   0  0  0  0  0  0  0  0  0  0  0  0
   -3.5703    1.0199    0.5398 C   0  0  0  0  0  0  0  0  0  0  0  0
   -1.2737    1.9037    1.0375 C   0  0  2  0  0  0  0  0  0  0  0  0
   -0.9187    2.9413    1.9164 O   0  0  0  0  0  0  0  0  0  0  0  0
    7.0496   -1.6051    1.2892 S   0  0  0  0  0  0  0  0  0  0  0  0
    8.4747   -2.5436    1.2320 C   0  0  0  0  0  0  0  0  0  0  0  0
    9.3649   -2.0648    0.3153 C   0  0  0  0  0  0  0  0  0  0  0  0
    8.8831   -0.9148   -0.3548 C   0  0  0  0  0  0  0  0  0  0  0  0
    7.6368   -0.5404    0.0681 C   0  0  0  0  0  0  0  0  0  0  0  0
    6.8014    0.5722   -0.4013 C   0  0  0  0  0  0  0  0  0  0  0  0
    7.1847    1.5250   -1.1614 N   0  0  0  0  0  0  0  0  0  0  0  0
    4.4347    0.8524   -0.5296 C   0  0  0  0  0  0  0  0  0  0  0  0
    4.3498    0.9692   -1.9462 C   0  0  0  0  0  0  0  0  0  0  0  0
    3.1334    1.2435   -2.5239 C   0  0  0  0  0  0  0  0  0  0  0  0
    1.9783    1.4220   -1.7576 C   0  0  0  0  0  0  0  0  0  0  0  0
    2.0436    1.3064   -0.3632 C   0  0  0  0  0  0  0  0  0  0  0  0
    3.2550    1.0125    0.2375 C   0  0  0  0  0  0  0  0  0  0  0  0
   -0.2795    1.7430   -0.1040 C   0  0  0  0  0  0  0  0  0  0  0  0
   -9.6372   -3.3384    1.5907 H   0  0  0  0  0  0  0  0  0  0  0  0
   -8.4348   -4.9312   -0.1142 H   0  0  0  0  0  0  0  0  0  0  0  0
   -6.2387   -3.8358   -1.0612 H   0  0  0  0  0  0  0  0  0  0  0  0
   -6.7367    0.3881   -0.0643 H   0  0  0  0  0  0  0  0  0  0  0  0
   -3.7380   -1.0812   -0.7986 H   0  0  0  0  0  0  0  0  0  0  0  0
   -6.1874    2.4209   -1.0952 H   0  0  0  0  0  0  0  0  0  0  0  0
   -4.5929    4.2916   -1.2117 H   0  0  0  0  0  0  0  0  0  0  0  0
   -2.3368    4.0759   -0.2673 H   0  0  0  0  0  0  0  0  0  0  0  0
   -3.2913    0.1216    1.0778 H   0  0  0  0  0  0  0  0  0  0  0  0
   -1.2556    0.9889    1.6373 H   0  0  0  0  0  0  0  0  0  0  0  0
   -0.8134    3.7619    1.4232 H   0  0  0  0  0  0  0  0  0  0  0  0
   10.3284   -2.5146    0.1250 H   0  0  0  0  0  0  0  0  0  0  0  0
    9.4391   -0.3984   -1.1254 H   0  0  0  0  0  0  0  0  0  0  0  0
    8.1719    1.4428   -1.3870 H   0  0  0  0  0  0  0  0  0  0  0  0
    5.2236    0.8231   -2.5622 H   0  0  0  0  0  0  0  0  0  0  0  0
    3.0576    1.3195   -3.6003 H   0  0  0  0  0  0  0  0  0  0  0  0
    1.0474    1.6377   -2.2632 H   0  0  0  0  0  0  0  0  0  0  0  0
    3.3202    0.9095    1.3132 H   0  0  0  0  0  0  0  0  0  0  0  0
   -0.6091    0.9306   -0.7609 H   0  0  0  0  0  0  0  0  0  0  0  0
   -0.2461    2.6627   -0.7037 H   0  0  0  0  0  0  0  0  0  0  0  0
    0.9873    1.4588    0.4558 O   0  0  0  0  0  0  0  0  0  0  0  0
    5.5413    0.5491    0.1566 N   0  0  0  0  0  0  0  0  0  0  0  0
    8.5890   -3.4010    1.8776 H   0  0  0  0  0  0  0  0  0  0  0  0
  1  2  1  0
  1  5  1  0
  2  3  2  0
  3  4  1  0
  4  5  2  0
  5  6  1  0
  6  7  1  0
  6  8  2  0
  7  9  1  0
  9 10  2  0
  9 14  1  0
 10 11  1  0
 11 12  2  0
 12 13  1  0
 13 14  2  0
 13 15  1  0
 15 16  1  0
 15 30  1  0
 17 18  1  0
 17 21  1  0
 18 19  2  0
 19 20  1  0
 20 21  2  0
 21 22  1  0
 22 52  1  0
 22 23  2  0
 52 24  1  0
 24 25  2  0
 24 29  1  0
 25 26  1  0
 26 27  2  0
 27 28  1  0
 28 29  2  0
 28 51  1  0
 51 30  1  0
  2 31  1  0
  3 32  1  0
  4 33  1  0
  7 34  1  0
  8 35  1  0
 10 36  1  0
 11 37  1  0
 12 38  1  0
 14 39  1  0
 15 40  1  1
 16 41  1  0
 18 53  1  0
 19 42  1  0
 20 43  1  0
 23 44  1  0
 25 45  1  0
 26 46  1  0
 27 47  1  0
 29 48  1  0
 30 49  1  0
 30 50  1  0
M  CHG  1  52  -1
M  END
