
     RDKit          3D

 47 49  0  0  0  0  0  0  0  0999 V2000
   -2.6430   -0.7299   -0.5320 C   0  0  0  0  0  0  0  0  0  0  0  0
   -4.9230   -1.7854    0.7134 C   0  0  0  0  0  0  0  0  0  0  0  0
    4.6977   -0.8763    1.4481 C   0  0  0  0  0  0  0  0  0  0  0  0
    4.3323   -2.3067    1.0974 C   0  0  0  0  0  0  0  0  0  0  0  0
    4.5746   -0.3226   -0.8659 C   0  0  0  0  0  0  0  0  0  0  0  0
    5.5450    2.0891    0.6413 C   0  0  0  0  0  0  0  0  0  0  0  0
    4.1801    1.4295    0.8186 C   0  0  1  0  0  0  0  0  0  0  0  0
    3.1139    2.2099    0.0432 C   0  0  0  0  0  0  0  0  0  0  0  0
    1.8819    1.4601    0.0473 N   0  0  0  0  0  0  0  0  0  0  0  0
    0.7018    1.9566   -0.3307 C   0  0  0  0  0  0  0  0  0  0  0  0
    0.5294    3.1349   -0.6191 O   0  0  0  0  0  0  0  0  0  0  0  0
   -0.4353    0.9803   -0.3765 C   0  0  0  0  0  0  0  0  0  0  0  0
   -0.2534   -0.3853   -0.5774 C   0  0  0  0  0  0  0  0  0  0  0  0
   -1.3498   -1.2280   -0.6477 C   0  0  0  0  0  0  0  0  0  0  0  0
   -2.8290    0.6416   -0.3111 C   0  0  0  0  0  0  0  0  0  0  0  0
   -1.7245    1.4801   -0.2436 C   0  0  0  0  0  0  0  0  0  0  0  0
   -4.1098    1.1960   -0.2081 N   0  0  0  0  0  0  0  0  0  0  0  0
   -5.1415    0.7257    0.5440 C   0  0  0  0  0  0  0  0  0  0  0  0
   -6.2393    1.2509    0.5056 O   0  0  0  0  0  0  0  0  0  0  0  0
   -4.8301   -0.4517    1.4391 C   0  0  0  0  0  0  0  0  0  0  0  0
   -4.0047   -1.8011   -0.8631 S   0  0  0  0  0  0  0  0  0  0  0  0
    4.1116    0.0173    0.4680 N   0  0  0  0  0  0  0  0  0  0  0  0
    4.7572   -2.6469   -0.2044 O   0  0  0  0  0  0  0  0  0  0  0  0
    4.2172   -1.7670   -1.1640 C   0  0  0  0  0  0  0  0  0  0  0  0
   -4.5603   -2.5830    1.3603 H   0  0  0  0  0  0  0  0  0  0  0  0
   -5.9543   -2.0110    0.4428 H   0  0  0  0  0  0  0  0  0  0  0  0
    5.7940   -0.7795    1.5054 H   0  0  0  0  0  0  0  0  0  0  0  0
    4.8110   -3.0018    1.7888 H   0  0  0  0  0  0  0  0  0  0  0  0
    3.2433   -2.4290    1.1900 H   0  0  0  0  0  0  0  0  0  0  0  0
    4.0884    0.3122   -1.6104 H   0  0  0  0  0  0  0  0  0  0  0  0
    5.6604   -0.1831   -0.9794 H   0  0  0  0  0  0  0  0  0  0  0  0
    5.8440    2.1252   -0.4074 H   0  0  0  0  0  0  0  0  0  0  0  0
    5.5191    3.1140    1.0134 H   0  0  0  0  0  0  0  0  0  0  0  0
    6.3195    1.5585    1.1955 H   0  0  0  0  0  0  0  0  0  0  0  0
    3.9105    1.4825    1.8785 H   0  0  0  0  0  0  0  0  0  0  0  0
    2.9715    3.1828    0.5168 H   0  0  0  0  0  0  0  0  0  0  0  0
    3.4447    2.4056   -0.9828 H   0  0  0  0  0  0  0  0  0  0  0  0
    1.9981    0.4836    0.2832 H   0  0  0  0  0  0  0  0  0  0  0  0
    0.7320   -0.8120   -0.7163 H   0  0  0  0  0  0  0  0  0  0  0  0
   -1.2035   -2.2858   -0.8197 H   0  0  0  0  0  0  0  0  0  0  0  0
   -1.8762    2.5403   -0.0854 H   0  0  0  0  0  0  0  0  0  0  0  0
   -4.2787    2.0607   -0.7044 H   0  0  0  0  0  0  0  0  0  0  0  0
   -5.5499   -0.4552    2.2581 H   0  0  0  0  0  0  0  0  0  0  0  0
   -3.8390   -0.3428    1.8829 H   0  0  0  0  0  0  0  0  0  0  0  0
    3.1220   -1.8665   -1.2040 H   0  0  0  0  0  0  0  0  0  0  0  0
    4.6157   -2.0605   -2.1362 H   0  0  0  0  0  0  0  0  0  0  0  0
    4.2989   -0.6405    2.4374 H   0  0  0  0  0  0  0  0  0  0  0  0
  4 23  1  0
  4  3  1  0
 23 24  1  0
  3 22  1  0
 11 10  2  0
 13 14  2  0
 13 12  1  0
 10 12  1  0
 10  9  1  0
 24  5  1  0
 14  1  1  0
 22  7  1  0
 22  5  1  0
  8  9  1  0
  8  7  1  0
 12 16  2  0
  7  6  1  0
  1 21  1  0
  1 15  2  0
  2 20  1  0
  2 21  1  0
 16 15  1  0
 20 18  1  0
 15 17  1  0
 18 17  1  0
 18 19  2  0
  2 25  1  0
  2 26  1  0
  3 47  1  0
  3 27  1  0
  4 28  1  0
  4 29  1  0
  5 30  1  0
  5 31  1  0
  6 32  1  0
  6 33  1  0
  6 34  1  0
  7 35  1  1
  8 36  1  0
  8 37  1  0
  9 38  1  0
 13 39  1  0
 14 40  1  0
 16 41  1  0
 17 42  1  0
 20 43  1  0
 20 44  1  0
 24 45  1  0
 24 46  1  0
M  END
