
     RDKit          3D

 76 78  0  0  0  0  0  0  0  0999 V2000
    3.0647   -3.7853   -0.1709 C   0  0  0  0  0  0  0  0  0  0  0  0
    2.6759   -5.0288    0.1284 O   0  0  0  0  0  0  0  0  0  0  0  0
    3.4223   -5.7690    1.0787 C   0  0  0  0  0  0  0  0  0  0  0  0
    2.2989   -3.1115   -1.1286 C   0  0  0  0  0  0  0  0  0  0  0  0
    2.6228   -1.8243   -1.5001 C   0  0  0  0  0  0  0  0  0  0  0  0
    3.7158   -1.1875   -0.9166 C   0  0  0  0  0  0  0  0  0  0  0  0
    4.4909   -1.8560    0.0203 C   0  0  0  0  0  0  0  0  0  0  0  0
    4.1674   -3.1489    0.4000 C   0  0  0  0  0  0  0  0  0  0  0  0
    4.1099    0.4780   -1.3577 S   0  0  1  0  0  0  0  0  0  0  0  0
    5.5577    0.6029   -1.2848 O   0  0  0  0  0  0  0  0  0  0  0  0
    3.4203    0.7675   -2.6066 O   0  0  0  0  0  0  0  0  0  0  0  0
    3.4852    1.4741   -0.2124 N   0  0  0  0  0  0  0  0  0  0  0  0
    4.2342    1.6891    1.0279 C   0  0  0  0  0  0  0  0  0  0  0  0
    5.2374    2.8403    0.9791 C   0  0  1  0  0  0  0  0  0  0  0  0
    4.5923    4.1472    0.5363 C   0  0  0  0  0  0  0  0  0  0  0  0
    5.8764    2.9844    2.3565 C   0  0  0  0  0  0  0  0  0  0  0  0
    2.0908    1.8883   -0.2901 C   0  0  0  0  0  0  0  0  0  0  0  0
    1.0822    0.9066    0.3088 C   0  0  1  0  0  0  0  0  0  0  0  0
    1.2408    0.7331    1.6988 O   0  0  0  0  0  0  0  0  0  0  0  0
   -0.3563    1.2892   -0.0656 C   0  0  1  0  0  0  0  0  0  0  0  0
   -1.2551    0.2897    0.4636 N   0  0  0  0  0  0  0  0  0  0  0  0
   -2.3628   -0.1053   -0.1974 C   0  0  0  0  0  0  0  0  0  0  0  0
   -2.5845    0.0762   -1.3743 O   0  0  0  0  0  0  0  0  0  0  0  0
   -3.1848   -0.7665    0.6313 O   0  0  0  0  0  0  0  0  0  0  0  0
   -4.4789   -1.1397    0.1501 C   0  0  1  0  0  0  0  0  0  0  0  0
   -4.3686   -2.5549   -0.4213 C   0  0  0  0  0  0  0  0  0  0  0  0
   -5.5598   -3.0219   -1.0060 O   0  0  0  0  0  0  0  0  0  0  0  0
   -6.6633   -3.1170   -0.1543 C   0  0  0  0  0  0  0  0  0  0  0  0
   -7.3316   -1.9054   -0.0235 O   0  0  0  0  0  0  0  0  0  0  0  0
   -6.8928   -0.9970    0.9741 C   0  0  0  0  0  0  0  0  0  0  0  0
   -5.4185   -1.0627    1.3454 C   0  0  0  0  0  0  0  0  0  0  0  0
   -0.7602    2.6990    0.4093 C   0  0  0  0  0  0  0  0  0  0  0  0
   -3.2021    2.7127    1.0202 C   0  0  0  0  0  0  0  0  0  0  0  0
   -4.5394    2.9117    0.7026 C   0  0  0  0  0  0  0  0  0  0  0  0
   -4.8912    3.4064   -0.5458 C   0  0  0  0  0  0  0  0  0  0  0  0
   -3.8978    3.7077   -1.4689 C   0  0  0  0  0  0  0  0  0  0  0  0
   -2.5640    3.5016   -1.1487 C   0  0  0  0  0  0  0  0  0  0  0  0
   -2.1993    2.9969    0.0967 C   0  0  0  0  0  0  0  0  0  0  0  0
    3.4199   -5.2877    2.0593 H   0  0  0  0  0  0  0  0  0  0  0  0
    2.9376   -6.7380    1.1616 H   0  0  0  0  0  0  0  0  0  0  0  0
    4.4554   -5.9161    0.7557 H   0  0  0  0  0  0  0  0  0  0  0  0
    1.4525   -3.6108   -1.5822 H   0  0  0  0  0  0  0  0  0  0  0  0
    2.0230   -1.3254   -2.2497 H   0  0  0  0  0  0  0  0  0  0  0  0
    5.3619   -1.3888    0.4594 H   0  0  0  0  0  0  0  0  0  0  0  0
    4.7903   -3.6430    1.1325 H   0  0  0  0  0  0  0  0  0  0  0  0
    3.5020    1.8834    1.8117 H   0  0  0  0  0  0  0  0  0  0  0  0
    4.7383    0.7700    1.3370 H   0  0  0  0  0  0  0  0  0  0  0  0
    6.0198    2.5846    0.2610 H   0  0  0  0  0  0  0  0  0  0  0  0
    4.1683    4.0719   -0.4659 H   0  0  0  0  0  0  0  0  0  0  0  0
    3.7935    4.4494    1.2189 H   0  0  0  0  0  0  0  0  0  0  0  0
    5.3281    4.9525    0.5176 H   0  0  0  0  0  0  0  0  0  0  0  0
    6.3674    2.0618    2.6724 H   0  0  0  0  0  0  0  0  0  0  0  0
    6.6275    3.7749    2.3589 H   0  0  0  0  0  0  0  0  0  0  0  0
    5.1268    3.2367    3.1107 H   0  0  0  0  0  0  0  0  0  0  0  0
    2.0266    2.8554    0.2147 H   0  0  0  0  0  0  0  0  0  0  0  0
    1.8306    2.0846   -1.3306 H   0  0  0  0  0  0  0  0  0  0  0  0
    1.2554   -0.0845   -0.1170 H   0  0  0  0  0  0  0  0  0  0  0  0
    1.1583    1.5849    2.1409 H   0  0  0  0  0  0  0  0  0  0  0  0
   -0.4290    1.2567   -1.1541 H   0  0  0  0  0  0  0  0  0  0  0  0
   -1.2278    0.1404    1.4613 H   0  0  0  0  0  0  0  0  0  0  0  0
   -4.8009   -0.4428   -0.6296 H   0  0  0  0  0  0  0  0  0  0  0  0
   -3.6149   -2.5776   -1.2100 H   0  0  0  0  0  0  0  0  0  0  0  0
   -4.0356   -3.2287    0.3812 H   0  0  0  0  0  0  0  0  0  0  0  0
   -7.3607   -3.8042   -0.6342 H   0  0  0  0  0  0  0  0  0  0  0  0
   -6.3708   -3.5366    0.8194 H   0  0  0  0  0  0  0  0  0  0  0  0
   -7.1198   -0.0011    0.5869 H   0  0  0  0  0  0  0  0  0  0  0  0
   -7.4857   -1.1285    1.8857 H   0  0  0  0  0  0  0  0  0  0  0  0
   -5.2201   -1.8936    2.0286 H   0  0  0  0  0  0  0  0  0  0  0  0
   -5.2078   -0.1502    1.9090 H   0  0  0  0  0  0  0  0  0  0  0  0
   -0.5993    2.7897    1.4878 H   0  0  0  0  0  0  0  0  0  0  0  0
   -0.1172    3.4389   -0.0720 H   0  0  0  0  0  0  0  0  0  0  0  0
   -5.3065    2.6839    1.4320 H   0  0  0  0  0  0  0  0  0  0  0  0
   -5.9325    3.5623   -0.7967 H   0  0  0  0  0  0  0  0  0  0  0  0
   -4.1646    4.1023   -2.4411 H   0  0  0  0  0  0  0  0  0  0  0  0
   -1.7957    3.7306   -1.8789 H   0  0  0  0  0  0  0  0  0  0  0  0
   -2.9346    2.3323    1.9991 H   0  0  0  0  0  0  0  0  0  0  0  0
  1  2  1  0
  1  4  2  0
  1  8  1  0
  2  3  1  0
  4  5  1  0
  5  6  2  0
  6  7  1  0
  6  9  1  0
  7  8  2  0
  9 10  2  0
  9 11  2  0
  9 12  1  1
 12 13  1  0
 12 17  1  0
 13 14  1  0
 14 15  1  0
 14 16  1  0
 17 18  1  0
 18 19  1  0
 18 20  1  0
 20 21  1  0
 20 32  1  0
 21 22  1  0
 22 23  2  0
 22 24  1  0
 24 25  1  0
 25 26  1  0
 25 31  1  0
 26 27  1  0
 27 28  1  0
 28 29  1  0
 29 30  1  0
 30 31  1  0
 32 38  1  0
 33 34  2  0
 33 38  1  0
 34 35  1  0
 35 36  2  0
 36 37  1  0
 37 38  2  0
  3 39  1  0
  3 40  1  0
  3 41  1  0
  4 42  1  0
  5 43  1  0
  7 44  1  0
  8 45  1  0
 13 46  1  0
 13 47  1  0
 14 48  1  6
 15 49  1  0
 15 50  1  0
 15 51  1  0
 16 52  1  0
 16 53  1  0
 16 54  1  0
 17 55  1  0
 17 56  1  0
 18 57  1  6
 19 58  1  0
 20 59  1  6
 21 60  1  0
 25 61  1  6
 26 62  1  0
 26 63  1  0
 28 64  1  0
 28 65  1  0
 30 66  1  0
 30 67  1  0
 31 68  1  0
 31 69  1  0
 32 70  1  0
 32 71  1  0
 33 76  1  0
 34 72  1  0
 35 73  1  0
 36 74  1  0
 37 75  1  0
M  END
