
     RDKit          3D

 22 22  0  0  0  0  0  0  0  0999 V2000
    1.8776    0.3053    1.0540 C   0  0  0  0  0  0  0  0  0  0  0  0
    3.1156   -0.2734    1.2889 C   0  0  0  0  0  0  0  0  0  0  0  0
    3.9122   -0.6740    0.2217 C   0  0  0  0  0  0  0  0  0  0  0  0
    3.4639   -0.4920   -1.0785 C   0  0  0  0  0  0  0  0  0  0  0  0
    2.2207    0.0856   -1.3099 C   0  0  0  0  0  0  0  0  0  0  0  0
   -3.1982   -0.3183    0.2574 C   0  0  0  0  0  0  0  0  0  0  0  0
   -4.4356    0.1531    0.1796 O   0  0  0  0  0  0  0  0  0  0  0  0
   -2.2029    0.7259   -0.1807 C   0  0  0  0  0  0  0  0  0  0  0  0
    1.4196    0.4924   -0.2492 C   0  0  0  0  0  0  0  0  0  0  0  0
   -2.9166   -1.4270    0.6257 O   0  0  0  0  0  0  0  0  0  0  0  0
   -0.9193    0.1978   -0.0627 O   0  0  0  0  0  0  0  0  0  0  0  0
    1.2657    0.6207    1.8910 H   0  0  0  0  0  0  0  0  0  0  0  0
    3.4626   -0.4099    2.3049 H   0  0  0  0  0  0  0  0  0  0  0  0
    4.8786   -1.1249    0.4069 H   0  0  0  0  0  0  0  0  0  0  0  0
    4.0787   -0.7998   -1.9146 H   0  0  0  0  0  0  0  0  0  0  0  0
    1.8736    0.2233   -2.3271 H   0  0  0  0  0  0  0  0  0  0  0  0
   -5.0706   -0.5257    0.4531 H   0  0  0  0  0  0  0  0  0  0  0  0
   -2.4388    1.0215   -1.2137 H   0  0  0  0  0  0  0  0  0  0  0  0
   -2.3411    1.6256    0.4369 H   0  0  0  0  0  0  0  0  0  0  0  0
   -0.0137    2.0539    0.0589 H   0  0  0  0  0  0  0  0  0  0  0  0
   -0.0515    1.3434   -1.5567 H   0  0  0  0  0  0  0  0  0  0  0  0
    0.0730    1.1073   -0.4917 C   0  0  0  0  0  0  0  0  0  0  0  0
  4  3  2  0
  4  5  1  0
  3  2  1  0
  5  9  2  0
  2  1  2  0
  9  1  1  0
  9 22  1  0
 22 11  1  0
 11  8  1  0
  8  6  1  0
  6 10  2  0
  6  7  1  0
  1 12  1  0
  2 13  1  0
  3 14  1  0
  4 15  1  0
  5 16  1  0
  7 17  1  0
  8 18  1  0
  8 19  1  0
 22 20  1  0
 22 21  1  0
M  END
