
     RDKit          3D

 33 35  0  0  0  0  0  0  0  0999 V2000
   -4.7711    1.2911   -0.2238 C   0  0  0  0  0  0  0  0  0  0  0  0
   -4.4515   -0.0483   -0.1128 C   0  0  0  0  0  0  0  0  0  0  0  0
   -3.1017   -0.3755   -0.0119 C   0  0  0  0  0  0  0  0  0  0  0  0
   -2.0797    0.5948   -0.0163 C   0  0  0  0  0  0  0  0  0  0  0  0
   -2.4332    1.9440   -0.1317 C   0  0  0  0  0  0  0  0  0  0  0  0
   -3.7708    2.2752   -0.2341 C   0  0  0  0  0  0  0  0  0  0  0  0
   -1.1755   -1.4571    0.1669 C   0  0  0  0  0  0  0  0  0  0  0  0
   -2.5159   -1.6111    0.1044 N   0  0  0  0  0  0  0  0  0  0  0  0
    3.4894    1.0309    0.4464 C   0  0  0  0  0  0  0  0  0  0  0  0
    4.8737    1.1412    0.4817 C   0  0  0  0  0  0  0  0  0  0  0  0
    5.6944    0.1010    0.0726 C   0  0  0  0  0  0  0  0  0  0  0  0
    5.1090   -1.0754   -0.3784 C   0  0  0  0  0  0  0  0  0  0  0  0
    3.7316   -1.2015   -0.4189 C   0  0  0  0  0  0  0  0  0  0  0  0
    2.9023   -0.1521   -0.0091 C   0  0  0  0  0  0  0  0  0  0  0  0
    1.5271   -0.3830   -0.0763 N   0  0  0  0  0  0  0  0  0  0  0  0
    0.6494    1.6621    0.4088 O   0  0  0  0  0  0  0  0  0  0  0  0
   -0.8406   -0.1237    0.0901 C   0  0  0  0  0  0  0  0  0  0  0  0
   -5.8093    1.5850   -0.3055 H   0  0  0  0  0  0  0  0  0  0  0  0
   -5.2222   -0.8083   -0.1063 H   0  0  0  0  0  0  0  0  0  0  0  0
   -4.0551    3.3157   -0.3234 H   0  0  0  0  0  0  0  0  0  0  0  0
   -1.6768    2.7153   -0.1376 H   0  0  0  0  0  0  0  0  0  0  0  0
   -0.5441   -2.3247    0.2877 H   0  0  0  0  0  0  0  0  0  0  0  0
   -3.8740   -2.9924   -0.6832 H   0  0  0  0  0  0  0  0  0  0  0  0
   -2.5210   -3.6816    0.2206 H   0  0  0  0  0  0  0  0  0  0  0  0
   -3.8486   -2.8952    1.0858 H   0  0  0  0  0  0  0  0  0  0  0  0
    5.3106    2.0649    0.8393 H   0  0  0  0  0  0  0  0  0  0  0  0
    6.7708    0.2033    0.1047 H   0  0  0  0  0  0  0  0  0  0  0  0
    5.7253   -1.9042   -0.7023 H   0  0  0  0  0  0  0  0  0  0  0  0
    3.2904   -2.1258   -0.7740 H   0  0  0  0  0  0  0  0  0  0  0  0
    1.2797   -1.2999   -0.4139 H   0  0  0  0  0  0  0  0  0  0  0  0
   -3.2328   -2.8620    0.1874 C   0  0  0  0  0  0  0  0  0  0  0  0
    0.4924    0.4756    0.1596 C   0  0  0  0  0  0  0  0  0  0  0  0
    2.8860    1.8621    0.7707 H   0  0  0  0  0  0  0  0  0  0  0  0
  1  2  2  0
  1  6  1  0
  2  3  1  0
  3  4  2  0
  3  8  1  0
  4  5  1  0
  4 17  1  0
  5  6  2  0
  7  8  1  0
  7 17  2  0
 31  8  1  0
  9 10  2  0
  9 14  1  0
 10 11  1  0
 11 12  2  0
 12 13  1  0
 13 14  2  0
 14 15  1  0
 32 15  1  0
 32 16  2  0
 32 17  1  0
  1 18  1  0
  2 19  1  0
  6 20  1  0
  5 21  1  0
  7 22  1  0
 31 23  1  0
 31 24  1  0
 31 25  1  0
  9 33  1  0
 10 26  1  0
 11 27  1  0
 12 28  1  0
 13 29  1  0
 15 30  1  0
M  END
