
     RDKit          3D

 97 97  0  0  0  0  0  0  0  0999 V2000
   -7.7945   -0.5304    1.6989 C   0  0  1  0  0  0  0  0  0  0  0  0
    0.7919    0.0577    1.0192 C   0  0  0  0  0  0  0  0  0  0  0  0
   -7.0554   -0.3033    0.3843 C   0  0  2  0  0  0  0  0  0  0  0  0
   -6.3062   -1.5365   -0.0938 C   0  0  0  0  0  0  0  0  0  0  0  0
   -2.0179   -0.7718   -0.6580 C   0  0  1  0  0  0  0  0  0  0  0  0
   -5.7771   -1.4158   -1.5263 C   0  0  1  0  0  0  0  0  0  0  0  0
   -4.7639   -2.4879   -1.7974 C   0  0  0  0  0  0  0  0  0  0  0  0
   -3.4591   -2.3085   -1.9841 C   0  0  0  0  0  0  0  0  0  0  0  0
   -2.7042   -1.0091   -2.0177 C   0  0  2  0  0  0  0  0  0  0  0  0
   -1.1085    0.4726   -0.6144 C   0  0  2  0  0  0  0  0  0  0  0  0
   -0.4133    0.5470    0.7177 C   0  0  0  0  0  0  0  0  0  0  0  0
   -8.0823    0.8031    2.3707 C   0  0  2  0  0  0  0  0  0  0  0  0
   -9.0668   -1.3392    1.4679 C   0  0  0  0  0  0  0  0  0  0  0  0
   -8.9035    1.5518    1.5029 O   0  0  0  0  0  0  0  0  0  0  0  0
   -6.7778    1.5414    2.6461 C   0  0  1  0  0  0  0  0  0  0  0  0
   -5.9399    0.8933    3.7540 C   0  0  0  0  0  0  0  0  0  0  0  0
   -5.9363    1.6612    1.4017 C   0  0  0  0  0  0  0  0  0  0  0  0
   -5.0954    2.5153    1.2615 O   0  0  0  0  0  0  0  0  0  0  0  0
   -6.0649    0.7523    0.4437 O   0  0  0  0  0  0  0  0  0  0  0  0
   -6.8336   -1.4337   -2.4704 O   0  0  0  0  0  0  0  0  0  0  0  0
   -1.6993   -1.0381   -3.1696 C   0  0  0  0  0  0  0  0  0  0  0  0
   -2.9611   -0.7496    0.3923 O   0  0  0  0  0  0  0  0  0  0  0  0
   -1.8643    1.7716   -0.8947 C   0  0  0  0  0  0  0  0  0  0  0  0
    1.3507    0.1912    2.4079 C   0  0  0  0  0  0  0  0  0  0  0  0
    1.6742   -0.6732    0.0427 C   0  0  0  0  0  0  0  0  0  0  0  0
    2.8952    0.1493   -0.4031 C   0  0  2  0  0  0  0  0  0  0  0  0
    2.4784    1.3803   -1.2028 C   0  0  0  0  0  0  0  0  0  0  0  0
    3.8860   -0.7506   -1.1610 C   0  0  1  0  0  0  0  0  0  0  0  0
    3.2724   -1.3498   -2.2871 O   0  0  0  0  0  0  0  0  0  0  0  0
    5.2039   -0.0569   -1.5631 C   0  0  2  0  0  0  0  0  0  0  0  0
    6.1114   -1.0114   -2.3384 C   0  0  0  0  0  0  0  0  0  0  0  0
    5.9084    0.5793   -0.3594 C   0  0  1  0  0  0  0  0  0  0  0  0
    6.2346   -0.4674    0.5600 O   0  0  0  0  0  0  0  0  0  0  0  0
    5.9997   -0.2995    1.8676 C   0  0  0  0  0  0  0  0  0  0  0  0
    5.3549    0.6134    2.3432 O   0  0  0  0  0  0  0  0  0  0  0  0
    6.5298   -1.3119    2.5756 N   0  0  0  0  0  0  0  0  0  0  0  0
    7.2037    1.3341   -0.7004 C   0  0  1  0  0  0  0  0  0  0  0  0
    6.9401    2.4553   -1.7060 C   0  0  0  0  0  0  0  0  0  0  0  0
    7.7976    1.9086    0.5518 C   0  0  0  0  0  0  0  0  0  0  0  0
    8.8317    1.4259    1.2494 C   0  0  0  0  0  0  0  0  0  0  0  0
    9.5903    0.2223    0.9450 C   0  0  0  0  0  0  0  0  0  0  0  0
   10.6098   -0.2092    1.6905 C   0  0  0  0  0  0  0  0  0  0  0  0
   -7.1514   -1.1054    2.3735 H   0  0  0  0  0  0  0  0  0  0  0  0
   -7.7730    0.0119   -0.3786 H   0  0  0  0  0  0  0  0  0  0  0  0
   -5.4794   -1.7338    0.5933 H   0  0  0  0  0  0  0  0  0  0  0  0
   -6.9646   -2.4087   -0.0345 H   0  0  0  0  0  0  0  0  0  0  0  0
   -1.3813   -1.6412   -0.4549 H   0  0  0  0  0  0  0  0  0  0  0  0
   -5.3125   -0.4361   -1.6512 H   0  0  0  0  0  0  0  0  0  0  0  0
   -5.1500   -3.5059   -1.8009 H   0  0  0  0  0  0  0  0  0  0  0  0
   -2.8442   -3.1947   -2.1279 H   0  0  0  0  0  0  0  0  0  0  0  0
   -3.4043   -0.1849   -2.1966 H   0  0  0  0  0  0  0  0  0  0  0  0
   -0.3564    0.3526   -1.3969 H   0  0  0  0  0  0  0  0  0  0  0  0
   -0.9689    1.0460    1.5086 H   0  0  0  0  0  0  0  0  0  0  0  0
   -8.5848    0.6188    3.3306 H   0  0  0  0  0  0  0  0  0  0  0  0
   -9.7335   -0.8512    0.7573 H   0  0  0  0  0  0  0  0  0  0  0  0
   -8.8472   -2.3375    1.0914 H   0  0  0  0  0  0  0  0  0  0  0  0
   -9.6076   -1.4619    2.4071 H   0  0  0  0  0  0  0  0  0  0  0  0
   -9.1460    2.3745    1.9397 H   0  0  0  0  0  0  0  0  0  0  0  0
   -7.0092    2.5608    2.9695 H   0  0  0  0  0  0  0  0  0  0  0  0
   -5.5503   -0.0848    3.4715 H   0  0  0  0  0  0  0  0  0  0  0  0
   -5.0917    1.5237    4.0160 H   0  0  0  0  0  0  0  0  0  0  0  0
   -6.5486    0.7643    4.6490 H   0  0  0  0  0  0  0  0  0  0  0  0
   -7.2779   -2.2869   -2.4143 H   0  0  0  0  0  0  0  0  0  0  0  0
   -0.8924   -1.7469   -2.9684 H   0  0  0  0  0  0  0  0  0  0  0  0
   -2.1855   -1.3466   -4.0956 H   0  0  0  0  0  0  0  0  0  0  0  0
   -1.2515   -0.0614   -3.3506 H   0  0  0  0  0  0  0  0  0  0  0  0
   -3.5845   -0.0329    0.2353 H   0  0  0  0  0  0  0  0  0  0  0  0
   -1.1812    2.6209   -0.8657 H   0  0  0  0  0  0  0  0  0  0  0  0
   -2.3352    1.7681   -1.8785 H   0  0  0  0  0  0  0  0  0  0  0  0
   -2.6432    1.9666   -0.1534 H   0  0  0  0  0  0  0  0  0  0  0  0
    2.3342    0.6670    2.4065 H   0  0  0  0  0  0  0  0  0  0  0  0
    0.6968    0.7757    3.0549 H   0  0  0  0  0  0  0  0  0  0  0  0
    1.4890   -0.7919    2.8662 H   0  0  0  0  0  0  0  0  0  0  0  0
    2.0336   -1.5873    0.5307 H   0  0  0  0  0  0  0  0  0  0  0  0
    1.1163   -1.0015   -0.8354 H   0  0  0  0  0  0  0  0  0  0  0  0
    3.3967    0.4924    0.5051 H   0  0  0  0  0  0  0  0  0  0  0  0
    1.9930    1.1111   -2.1443 H   0  0  0  0  0  0  0  0  0  0  0  0
    1.7635    1.9817   -0.6405 H   0  0  0  0  0  0  0  0  0  0  0  0
    3.3262    2.0253   -1.4419 H   0  0  0  0  0  0  0  0  0  0  0  0
    4.1329   -1.5915   -0.5034 H   0  0  0  0  0  0  0  0  0  0  0  0
    3.0759   -0.6640   -2.9340 H   0  0  0  0  0  0  0  0  0  0  0  0
    4.9455    0.7713   -2.2336 H   0  0  0  0  0  0  0  0  0  0  0  0
    6.4074   -1.8715   -1.7356 H   0  0  0  0  0  0  0  0  0  0  0  0
    5.6075   -1.3870   -3.2263 H   0  0  0  0  0  0  0  0  0  0  0  0
    7.0200   -0.5129   -2.6763 H   0  0  0  0  0  0  0  0  0  0  0  0
    5.2313    1.2876    0.1247 H   0  0  0  0  0  0  0  0  0  0  0  0
    7.1870   -1.9489    2.1597 H   0  0  0  0  0  0  0  0  0  0  0  0
    6.5030   -1.2668    3.5795 H   0  0  0  0  0  0  0  0  0  0  0  0
    7.9076    0.6305   -1.1502 H   0  0  0  0  0  0  0  0  0  0  0  0
    7.8446    3.0419   -1.8671 H   0  0  0  0  0  0  0  0  0  0  0  0
    6.6248    2.0698   -2.6756 H   0  0  0  0  0  0  0  0  0  0  0  0
    6.1646    3.1347   -1.3449 H   0  0  0  0  0  0  0  0  0  0  0  0
    7.3188    2.8129    0.9177 H   0  0  0  0  0  0  0  0  0  0  0  0
    9.1446    1.9677    2.1376 H   0  0  0  0  0  0  0  0  0  0  0  0
    9.3055   -0.3493    0.0686 H   0  0  0  0  0  0  0  0  0  0  0  0
   10.9304    0.3243    2.5777 H   0  0  0  0  0  0  0  0  0  0  0  0
   11.1528   -1.1102    1.4397 H   0  0  0  0  0  0  0  0  0  0  0  0
 21  9  1  0
 22  5  1  0
 20  6  1  0
  9  8  1  0
  9  5  1  0
  8  7  2  0
  5 10  1  0
  7  6  1  0
  6  4  1  0
 10 23  1  0
 10 11  1  0
  4  3  1  0
 42 41  2  0
 19  3  1  0
 19 17  1  0
  3  1  1  0
 11  2  2  0
 40 41  1  0
 40 39  2  0
 18 17  2  0
 17 15  1  0
 14 12  1  0
 39 37  1  0
  2 25  1  0
  2 24  1  0
  1 13  1  0
  1 12  1  0
 25 26  1  0
 12 15  1  0
 15 16  1  0
 38 37  1  0
 37 32  1  0
 33 32  1  0
 33 34  1  0
 36 34  1  0
 26 28  1  0
 26 27  1  0
 32 30  1  0
 30 28  1  0
 30 31  1  0
 34 35  2  0
 28 29  1  0
  1 43  1  1
  3 44  1  6
  4 45  1  0
  4 46  1  0
  5 47  1  1
  6 48  1  1
  7 49  1  0
  8 50  1  0
  9 51  1  6
 10 52  1  6
 11 53  1  0
 12 54  1  1
 13 55  1  0
 13 56  1  0
 13 57  1  0
 14 58  1  0
 15 59  1  1
 16 60  1  0
 16 61  1  0
 16 62  1  0
 20 63  1  0
 21 64  1  0
 21 65  1  0
 21 66  1  0
 22 67  1  0
 23 68  1  0
 23 69  1  0
 23 70  1  0
 24 71  1  0
 24 72  1  0
 24 73  1  0
 25 74  1  0
 25 75  1  0
 26 76  1  1
 27 77  1  0
 27 78  1  0
 27 79  1  0
 28 80  1  1
 29 81  1  0
 30 82  1  6
 31 83  1  0
 31 84  1  0
 31 85  1  0
 32 86  1  1
 36 87  1  0
 36 88  1  0
 37 89  1  6
 38 90  1  0
 38 91  1  0
 38 92  1  0
 39 93  1  0
 40 94  1  0
 41 95  1  0
 42 96  1  0
 42 97  1  0
M  END
