
     RDKit          3D

 22 21  0  0  0  0  0  0  0  0999 V2000
    2.1095    1.7805    0.6816 N   0  0  0  0  0  0  0  0  0  0  0  0
    2.2388    0.3519    0.4957 C   0  0  1  0  0  0  0  0  0  0  0  0
    1.0852   -0.4099   -0.2177 C   0  0  1  0  0  0  0  0  0  0  0  0
    1.1679   -1.8814    0.1395 C   0  0  0  0  0  0  0  0  0  0  0  0
   -0.2783    0.1657    0.1516 C   0  0  0  0  0  0  0  0  0  0  0  0
   -1.3921   -0.4903   -0.6284 C   0  0  0  0  0  0  0  0  0  0  0  0
    3.5034    0.0953   -0.3145 C   0  0  0  0  0  0  0  0  0  0  0  0
    3.7816    0.4799   -1.4513 O   0  0  0  0  0  0  0  0  0  0  0  0
   -2.9700    0.6094   -0.7470 Br  0  0  0  0  0  0  0  0  0  0  0  0
    1.7517    2.2305   -0.1379 H   0  0  0  0  0  0  0  0  0  0  0  0
    1.5333    1.9869    1.4726 H   0  0  0  0  0  0  0  0  0  0  0  0
    2.3775   -0.1081    1.5207 H   0  0  0  0  0  0  0  0  0  0  0  0
    1.2293   -0.2987   -1.3299 H   0  0  0  0  0  0  0  0  0  0  0  0
    0.4820   -2.1208    0.9880 H   0  0  0  0  0  0  0  0  0  0  0  0
    0.8815   -2.5097   -0.7385 H   0  0  0  0  0  0  0  0  0  0  0  0
    2.2070   -2.1599    0.4432 H   0  0  0  0  0  0  0  0  0  0  0  0
   -0.4532    0.0317    1.2528 H   0  0  0  0  0  0  0  0  0  0  0  0
   -0.2923    1.2674   -0.0644 H   0  0  0  0  0  0  0  0  0  0  0  0
   -1.0720   -0.7030   -1.6751 H   0  0  0  0  0  0  0  0  0  0  0  0
   -1.7169   -1.4402   -0.1430 H   0  0  0  0  0  0  0  0  0  0  0  0
    4.4262   -0.6631    0.3358 O   0  0  0  0  0  0  0  0  0  0  0  0
    5.2048   -0.7892   -0.2323 H   0  0  0  0  0  0  0  0  0  0  0  0
  1  2  1  0
  1 10  1  0
  1 11  1  0
  2  7  1  0
  2  3  1  0
  2 12  1  1
  3  4  1  0
  3  5  1  0
  3 13  1  6
  4 14  1  0
  4 15  1  0
  4 16  1  0
  5  6  1  0
  5 17  1  0
  5 18  1  0
  6  9  1  0
  6 19  1  0
  6 20  1  0
  7  8  2  0
  7 21  1  0
 21 22  1  0
M  END
