
     RDKit          3D

 33 32  0  0  0  0  0  0  0  0999 V2000
    6.4121   -0.3307    0.0079 C   0  0  0  0  0  0  0  0  0  0  0  0
    5.1413    0.5079   -0.0055 C   0  0  0  0  0  0  0  0  0  0  0  0
    3.8757   -0.3413   -0.0010 C   0  0  0  0  0  0  0  0  0  0  0  0
    2.5940    0.4823   -0.0124 C   0  0  0  0  0  0  0  0  0  0  0  0
    1.3314   -0.3711   -0.0081 C   0  0  0  0  0  0  0  0  0  0  0  0
    0.0489    0.4514   -0.0169 C   0  0  0  0  0  0  0  0  0  0  0  0
   -1.2131   -0.4023   -0.0128 C   0  0  0  0  0  0  0  0  0  0  0  0
   -2.4932    0.4240   -0.0214 C   0  0  0  0  0  0  0  0  0  0  0  0
   -3.7554   -0.4299   -0.0122 C   0  0  0  0  0  0  0  0  0  0  0  0
   -5.0130    0.4165   -0.0236 C   0  0  0  0  0  0  0  0  0  0  0  0
   -6.1442   -0.4292   -0.0144 O   0  0  0  0  0  0  0  0  0  0  0  0
    7.3078    0.2915    0.0067 H   0  0  0  0  0  0  0  0  0  0  0  0
    6.4531   -0.9666    0.8945 H   0  0  0  0  0  0  0  0  0  0  0  0
    6.4618   -0.9825   -0.8667 H   0  0  0  0  0  0  0  0  0  0  0  0
    5.1319    1.1754    0.8618 H   0  0  0  0  0  0  0  0  0  0  0  0
    5.1379    1.1568   -0.8871 H   0  0  0  0  0  0  0  0  0  0  0  0
    3.8860   -1.0098   -0.8696 H   0  0  0  0  0  0  0  0  0  0  0  0
    3.8809   -0.9927    0.8806 H   0  0  0  0  0  0  0  0  0  0  0  0
    2.5835    1.1494    0.8570 H   0  0  0  0  0  0  0  0  0  0  0  0
    2.5887    1.1339   -0.8936 H   0  0  0  0  0  0  0  0  0  0  0  0
    1.3413   -1.0377   -0.8779 H   0  0  0  0  0  0  0  0  0  0  0  0
    1.3378   -1.0234    0.8725 H   0  0  0  0  0  0  0  0  0  0  0  0
    0.0390    1.1172    0.8535 H   0  0  0  0  0  0  0  0  0  0  0  0
    0.0424    1.1043   -0.8972 H   0  0  0  0  0  0  0  0  0  0  0  0
   -1.2043   -1.0678   -0.8832 H   0  0  0  0  0  0  0  0  0  0  0  0
   -1.2077   -1.0547    0.8676 H   0  0  0  0  0  0  0  0  0  0  0  0
   -2.4976    1.0918    0.8472 H   0  0  0  0  0  0  0  0  0  0  0  0
   -2.4977    1.0737   -0.9036 H   0  0  0  0  0  0  0  0  0  0  0  0
   -3.7548   -1.0937   -0.8829 H   0  0  0  0  0  0  0  0  0  0  0  0
   -3.7568   -1.0720    0.8748 H   0  0  0  0  0  0  0  0  0  0  0  0
   -5.0057    1.0835    0.8493 H   0  0  0  0  0  0  0  0  0  0  0  0
   -5.0041    1.0624   -0.9126 H   0  0  0  0  0  0  0  0  0  0  0  0
   -6.9312    0.1226   -0.0159 H   0  0  0  0  0  0  0  0  0  0  0  0
  1  2  1  0
  1 12  1  0
  1 13  1  0
  1 14  1  0
  2  3  1  0
  2 15  1  0
  2 16  1  0
  3  4  1  0
  3 17  1  0
  3 18  1  0
  4  5  1  0
  4 19  1  0
  4 20  1  0
  5  6  1  0
  5 21  1  0
  5 22  1  0
  6  7  1  0
  6 23  1  0
  6 24  1  0
  7  8  1  0
  7 25  1  0
  7 26  1  0
  8  9  1  0
  8 27  1  0
  8 28  1  0
  9 10  1  0
  9 29  1  0
  9 30  1  0
 10 11  1  0
 10 31  1  0
 10 32  1  0
 11 33  1  0
M  END
