
     RDKit          3D

 10  9  0  0  0  0  0  0  0  0999 V2000
    0.3054    0.7719    0.1523 C   0  0  0  0  0  0  0  0  0  0  0  0
    1.5227   -0.0759    0.3934 C   0  0  0  0  0  0  0  0  0  0  0  0
    2.5559    0.0453   -0.2113 O   0  0  0  0  0  0  0  0  0  0  0  0
   -0.9219   -0.0797   -0.0267 C   0  0  0  0  0  0  0  0  0  0  0  0
   -0.8887   -1.2737   -0.1880 O   0  0  0  0  0  0  0  0  0  0  0  0
   -2.0342    0.6358   -0.0085 O   0  0  0  0  0  0  0  0  0  0  0  0
    0.1726    1.4355    1.0137 H   0  0  0  0  0  0  0  0  0  0  0  0
    0.4417    1.4101   -0.7240 H   0  0  0  0  0  0  0  0  0  0  0  0
    1.4213   -0.8130    1.2062 H   0  0  0  0  0  0  0  0  0  0  0  0
   -2.8023    0.0621   -0.1532 H   0  0  0  0  0  0  0  0  0  0  0  0
  3  2  2  0
  2  1  1  0
  1  4  1  0
  5  4  2  0
  4  6  1  0
  1  7  1  0
  1  8  1  0
  2  9  1  0
  6 10  1  0
M  END
