
     RDKit          3D

 40 42  0  0  0  0  0  0  0  0999 V2000
   -1.1129   -1.9699    0.6852 N   0  0  0  0  0  0  0  0  0  0  0  0
    0.5639   -0.3070    0.4529 N   0  0  0  0  0  0  0  0  0  0  0  0
    2.7856   -0.7601    0.8590 N   0  0  0  0  0  0  0  0  0  0  0  0
   -1.5894    0.2193    0.0332 N   0  0  0  0  0  0  0  0  0  0  0  0
   -0.1563   -2.8350    1.0346 C   0  0  0  0  0  0  0  0  0  0  0  0
   -0.6943   -0.7457    0.4110 C   0  0  0  0  0  0  0  0  0  0  0  0
    1.4960   -1.1743    0.8087 C   0  0  0  0  0  0  0  0  0  0  0  0
    1.1712   -2.5098    1.1193 C   0  0  0  0  0  0  0  0  0  0  0  0
    3.2208    0.5593    0.6417 C   0  0  0  0  0  0  0  0  0  0  0  0
    2.7218    1.5955    1.4225 C   0  0  0  0  0  0  0  0  0  0  0  0
    3.1733    2.8922    1.2408 C   0  0  0  0  0  0  0  0  0  0  0  0
    4.1407    3.1671    0.2856 C   0  0  0  0  0  0  0  0  0  0  0  0
    4.6438    2.1420   -0.4988 C   0  0  0  0  0  0  0  0  0  0  0  0
    4.1808    0.8409   -0.3363 C   0  0  0  0  0  0  0  0  0  0  0  0
    4.6833   -0.2519   -1.2308 C   0  0  1  0  0  0  0  0  0  0  0  0
   -2.9589    0.1925   -0.1245 C   0  0  0  0  0  0  0  0  0  0  0  0
   -3.5588    1.3831   -0.5656 C   0  0  0  0  0  0  0  0  0  0  0  0
   -4.9200    1.4639   -0.7498 C   0  0  0  0  0  0  0  0  0  0  0  0
   -5.7418    0.3624   -0.5028 C   0  0  0  0  0  0  0  0  0  0  0  0
   -5.1463   -0.8187   -0.0643 C   0  0  0  0  0  0  0  0  0  0  0  0
   -3.7790   -0.9142    0.1250 C   0  0  0  0  0  0  0  0  0  0  0  0
   -7.1942    0.4957   -0.7186 C   0  0  0  0  0  0  0  0  0  0  0  0
   -7.8655   -0.6233   -0.4696 O   0  0  0  0  0  0  0  0  0  0  0  0
   -7.7333    1.5144   -1.0875 O   0  0  0  0  0  0  0  0  0  0  0  0
    5.5752    0.1892   -2.1203 F   0  0  0  0  0  0  0  0  0  0  0  0
    5.2855   -1.2373   -0.5433 F   0  0  0  0  0  0  0  0  0  0  0  0
    3.6903   -0.8216   -1.9267 F   0  0  0  0  0  0  0  0  0  0  0  0
    3.4783   -1.4590    1.0772 H   0  0  0  0  0  0  0  0  0  0  0  0
   -1.1475    1.1040   -0.1692 H   0  0  0  0  0  0  0  0  0  0  0  0
   -0.4845   -3.8431    1.2604 H   0  0  0  0  0  0  0  0  0  0  0  0
    1.9198   -3.2345    1.4057 H   0  0  0  0  0  0  0  0  0  0  0  0
    1.9861    1.3805    2.1848 H   0  0  0  0  0  0  0  0  0  0  0  0
    2.7785    3.6860    1.8607 H   0  0  0  0  0  0  0  0  0  0  0  0
    4.5057    4.1758    0.1495 H   0  0  0  0  0  0  0  0  0  0  0  0
    5.3916    2.3696   -1.2455 H   0  0  0  0  0  0  0  0  0  0  0  0
   -2.9413    2.2506   -0.7658 H   0  0  0  0  0  0  0  0  0  0  0  0
   -5.3487    2.3954   -1.0937 H   0  0  0  0  0  0  0  0  0  0  0  0
   -5.7472   -1.6940    0.1418 H   0  0  0  0  0  0  0  0  0  0  0  0
   -3.3500   -1.8414    0.4655 H   0  0  0  0  0  0  0  0  0  0  0  0
   -8.8107   -0.4794   -0.6227 H   0  0  0  0  0  0  0  0  0  0  0  0
 24 22  2  0
 23 22  1  0
 22 19  1  0
 12 11  1  0
 12 13  2  0
 19 18  1  0
 19 20  2  0
 11 10  2  0
 18 17  2  0
 13 14  1  0
 20 21  1  0
 10  9  1  0
 17 16  1  0
 14  9  2  0
 14 15  1  0
  9  3  1  0
 21 16  2  0
 16  4  1  0
 15 27  1  6
 26 15  1  0
 15 25  1  0
  3  7  1  0
  2  7  2  0
  2  6  1  0
  4  6  1  0
  7  8  1  0
  6  1  2  0
  8  5  2  0
  1  5  1  0
  3 28  1  0
  4 29  1  0
  5 30  1  0
  8 31  1  0
 10 32  1  0
 11 33  1  0
 12 34  1  0
 13 35  1  0
 17 36  1  0
 18 37  1  0
 20 38  1  0
 21 39  1  0
 23 40  1  0
M  END
