
     RDKit          3D

 32 31  0  0  0  0  0  0  0  0999 V2000
   -4.6507   -0.0611    0.0143 C   0  0  0  0  0  0  0  0  0  0  0  0
   -4.7901   -1.2589    0.0296 O   0  0  0  0  0  0  0  0  0  0  0  0
   -3.3329    0.6621    0.0044 C   0  0  0  0  0  0  0  0  0  0  0  0
   -2.1213   -0.2557    0.0074 C   0  0  0  0  0  0  0  0  0  0  0  0
   -0.8182    0.5339    0.0014 C   0  0  0  0  0  0  0  0  0  0  0  0
    0.4179   -0.3567    0.0041 C   0  0  0  0  0  0  0  0  0  0  0  0
    1.7207    0.4328   -0.0001 C   0  0  0  0  0  0  0  0  0  0  0  0
    2.9631   -0.4497    0.0059 C   0  0  0  0  0  0  0  0  0  0  0  0
    4.2618    0.3467    0.0017 C   0  0  0  0  0  0  0  0  0  0  0  0
    5.5100   -0.5280    0.0096 C   0  0  0  0  0  0  0  0  0  0  0  0
    6.7972    0.2856    0.0078 C   0  0  0  0  0  0  0  0  0  0  0  0
   -5.6780    0.7850    0.0046 O   0  0  0  0  0  0  0  0  0  0  0  0
   -3.3130    1.3200   -0.8706 H   0  0  0  0  0  0  0  0  0  0  0  0
   -3.3080    1.3318    0.8704 H   0  0  0  0  0  0  0  0  0  0  0  0
   -2.1486   -0.9048    0.8870 H   0  0  0  0  0  0  0  0  0  0  0  0
   -2.1513   -0.9145   -0.8648 H   0  0  0  0  0  0  0  0  0  0  0  0
   -0.7914    1.1882   -0.8771 H   0  0  0  0  0  0  0  0  0  0  0  0
   -0.7886    1.1967    0.8735 H   0  0  0  0  0  0  0  0  0  0  0  0
    0.3914   -1.0116    0.8822 H   0  0  0  0  0  0  0  0  0  0  0  0
    0.3905   -1.0185   -0.8688 H   0  0  0  0  0  0  0  0  0  0  0  0
    1.7457    1.0864   -0.8795 H   0  0  0  0  0  0  0  0  0  0  0  0
    1.7450    1.0977    0.8707 H   0  0  0  0  0  0  0  0  0  0  0  0
    2.9401   -1.1034    0.8852 H   0  0  0  0  0  0  0  0  0  0  0  0
    2.9406   -1.1138   -0.8656 H   0  0  0  0  0  0  0  0  0  0  0  0
    4.2845    1.0000   -0.8781 H   0  0  0  0  0  0  0  0  0  0  0  0
    4.2823    1.0126    0.8720 H   0  0  0  0  0  0  0  0  0  0  0  0
    5.4885   -1.1805    0.8881 H   0  0  0  0  0  0  0  0  0  0  0  0
    5.4927   -1.1913   -0.8609 H   0  0  0  0  0  0  0  0  0  0  0  0
    6.8554    0.9267   -0.8741 H   0  0  0  0  0  0  0  0  0  0  0  0
    6.8549    0.9309    0.8868 H   0  0  0  0  0  0  0  0  0  0  0  0
    7.6805   -0.3541    0.0097 H   0  0  0  0  0  0  0  0  0  0  0  0
   -6.5119    0.2921    0.0145 H   0  0  0  0  0  0  0  0  0  0  0  0
  1  2  2  0
  1  3  1  0
  1 12  1  0
  3  4  1  0
  3 13  1  0
  3 14  1  0
  4  5  1  0
  4 15  1  0
  4 16  1  0
  5  6  1  0
  5 17  1  0
  5 18  1  0
  6  7  1  0
  6 19  1  0
  6 20  1  0
  7  8  1  0
  7 21  1  0
  7 22  1  0
  8  9  1  0
  8 23  1  0
  8 24  1  0
  9 10  1  0
  9 25  1  0
  9 26  1  0
 10 11  1  0
 10 27  1  0
 10 28  1  0
 11 29  1  0
 11 30  1  0
 11 31  1  0
 12 32  1  0
M  END
