
     RDKit          3D

 72 75  0  0  0  0  0  0  0  0999 V2000
    0.2685    2.6708    3.3345 C   0  0  0  0  0  0  0  0  0  0  0  0
   -0.9396    3.4031    2.8431 N   0  0  0  0  0  0  0  0  0  0  0  0
   -4.0572   -1.6860    1.8554 O   0  0  0  0  0  0  0  0  0  0  0  0
    8.6947    2.4900   -1.3699 Br  0  0  0  0  0  0  0  0  0  0  0  0
   -2.1674    2.5848    2.6557 C   0  0  0  0  0  0  0  0  0  0  0  0
   -3.5476   -0.0690    0.3662 N   0  0  0  0  0  0  0  0  0  0  0  0
    2.3683    0.6467    0.2598 O   0  0  0  0  0  0  0  0  0  0  0  0
   -2.0667    1.5423    1.5551 C   0  0  2  0  0  0  0  0  0  0  0  0
   -6.8387    4.5134   -2.6956 N   0  0  0  0  0  0  0  0  0  0  0  0
    2.7426   -0.9060   -1.2986 O   0  0  0  0  0  0  0  0  0  0  0  0
   -3.4737    0.9468    1.3964 C   0  0  0  0  0  0  0  0  0  0  0  0
   -4.8580   -7.6739    1.4811 N   0  0  0  0  0  0  0  0  0  0  0  0
   -3.2806    0.3913   -0.9894 C   0  0  0  0  0  0  0  0  0  0  0  0
   -4.2171    1.4875   -1.4224 C   0  0  0  0  0  0  0  0  0  0  0  0
   -3.8399   -1.3538    0.7016 C   0  0  0  0  0  0  0  0  0  0  0  0
   -4.1425   -3.7686    0.0861 C   0  0  0  0  0  0  0  0  0  0  0  0
   -1.0219    0.4587    1.8396 C   0  0  0  0  0  0  0  0  0  0  0  0
    0.3900    0.9111    1.5817 C   0  0  0  0  0  0  0  0  0  0  0  0
    1.0604    0.1467    0.4867 C   0  0  0  0  0  0  0  0  0  0  0  0
    3.1151    0.0427   -0.6542 C   0  0  0  0  0  0  0  0  0  0  0  0
    4.4549    0.6641   -0.7954 C   0  0  0  0  0  0  0  0  0  0  0  0
    0.9599    1.9115    2.2474 C   0  0  0  0  0  0  0  0  0  0  0  0
    5.3539    0.0888   -1.6899 C   0  0  0  0  0  0  0  0  0  0  0  0
    6.6178    0.6251   -1.8663 C   0  0  0  0  0  0  0  0  0  0  0  0
    6.9788    1.7501   -1.1378 C   0  0  0  0  0  0  0  0  0  0  0  0
    6.0986    2.3403   -0.2419 C   0  0  0  0  0  0  0  0  0  0  0  0
    4.8374    1.7922   -0.0731 C   0  0  0  0  0  0  0  0  0  0  0  0
   -3.7440    2.7471   -1.7683 C   0  0  0  0  0  0  0  0  0  0  0  0
   -4.6024    3.7577   -2.1739 C   0  0  0  0  0  0  0  0  0  0  0  0
   -5.9815    3.5358   -2.2413 C   0  0  0  0  0  0  0  0  0  0  0  0
   -6.4618    2.2675   -1.8838 C   0  0  0  0  0  0  0  0  0  0  0  0
   -5.5919    1.2701   -1.4844 C   0  0  0  0  0  0  0  0  0  0  0  0
   -3.0950   -4.6516    0.3226 C   0  0  0  0  0  0  0  0  0  0  0  0
   -3.3179   -5.9333    0.8010 C   0  0  0  0  0  0  0  0  0  0  0  0
   -4.6172   -6.3807    1.0614 C   0  0  0  0  0  0  0  0  0  0  0  0
   -5.6748   -5.4940    0.8242 C   0  0  0  0  0  0  0  0  0  0  0  0
   -5.4337   -4.2171    0.3471 C   0  0  0  0  0  0  0  0  0  0  0  0
   -3.8852   -2.3825   -0.4229 C   0  0  0  0  0  0  0  0  0  0  0  0
    0.9289    3.4256    3.7520 H   0  0  0  0  0  0  0  0  0  0  0  0
   -0.0683    2.0361    4.1558 H   0  0  0  0  0  0  0  0  0  0  0  0
   -1.1626    4.1387    3.5149 H   0  0  0  0  0  0  0  0  0  0  0  0
   -0.7106    3.8948    1.9777 H   0  0  0  0  0  0  0  0  0  0  0  0
   -2.3783    2.1232    3.6205 H   0  0  0  0  0  0  0  0  0  0  0  0
   -2.9664    3.2934    2.4407 H   0  0  0  0  0  0  0  0  0  0  0  0
   -1.7988    2.0542    0.6237 H   0  0  0  0  0  0  0  0  0  0  0  0
   -6.5155    5.4624   -2.5978 H   0  0  0  0  0  0  0  0  0  0  0  0
   -7.8024    4.4164   -2.4191 H   0  0  0  0  0  0  0  0  0  0  0  0
   -4.1735    1.7511    1.1526 H   0  0  0  0  0  0  0  0  0  0  0  0
   -3.7993    0.5104    2.3380 H   0  0  0  0  0  0  0  0  0  0  0  0
   -4.0805   -8.1382    1.9231 H   0  0  0  0  0  0  0  0  0  0  0  0
   -5.7101   -7.8073    2.0024 H   0  0  0  0  0  0  0  0  0  0  0  0
   -2.2466    0.7455   -1.0603 H   0  0  0  0  0  0  0  0  0  0  0  0
   -3.3464   -0.4471   -1.6774 H   0  0  0  0  0  0  0  0  0  0  0  0
   -1.1257    0.1051    2.8710 H   0  0  0  0  0  0  0  0  0  0  0  0
   -1.2367   -0.4081    1.2106 H   0  0  0  0  0  0  0  0  0  0  0  0
    0.4600    0.2197   -0.4276 H   0  0  0  0  0  0  0  0  0  0  0  0
    1.0960   -0.9135    0.7586 H   0  0  0  0  0  0  0  0  0  0  0  0
    1.9713    2.2236    2.0267 H   0  0  0  0  0  0  0  0  0  0  0  0
    5.0715   -0.7887   -2.2553 H   0  0  0  0  0  0  0  0  0  0  0  0
    7.3037    0.1650   -2.5640 H   0  0  0  0  0  0  0  0  0  0  0  0
    6.3803    3.2184    0.3225 H   0  0  0  0  0  0  0  0  0  0  0  0
    4.1632    2.2637    0.6276 H   0  0  0  0  0  0  0  0  0  0  0  0
   -2.6796    2.9515   -1.7260 H   0  0  0  0  0  0  0  0  0  0  0  0
   -4.2011    4.7281   -2.4415 H   0  0  0  0  0  0  0  0  0  0  0  0
   -7.5265    2.0688   -1.9227 H   0  0  0  0  0  0  0  0  0  0  0  0
   -5.9986    0.3025   -1.2105 H   0  0  0  0  0  0  0  0  0  0  0  0
   -2.0757   -4.3351    0.1320 H   0  0  0  0  0  0  0  0  0  0  0  0
   -2.4772   -6.5952    0.9727 H   0  0  0  0  0  0  0  0  0  0  0  0
   -6.6931   -5.8136    1.0129 H   0  0  0  0  0  0  0  0  0  0  0  0
   -6.2768   -3.5578    0.1733 H   0  0  0  0  0  0  0  0  0  0  0  0
   -4.6573   -2.0975   -1.1446 H   0  0  0  0  0  0  0  0  0  0  0  0
   -2.9422   -2.3638   -0.9759 H   0  0  0  0  0  0  0  0  0  0  0  0
  4 25  1  0
 26 25  2  0
 26 27  1  0
 25 24  1  0
 27 21  2  0
 24 23  2  0
 21 23  1  0
 21 20  1  0
  7 20  1  0
  7 19  1  0
 20 10  2  0
  1 22  1  0
  1  2  1  0
 22 18  2  0
  2  5  1  0
 17 18  1  0
 17  8  1  0
 18 19  1  0
  8  5  1  0
  8 11  1  0
 11  6  1  0
  3 15  2  0
  6 15  1  0
  6 13  1  0
 15 38  1  0
 13 14  1  0
 38 16  1  0
 33 34  2  0
 33 16  1  0
 34 35  1  0
 16 37  2  0
 14 28  2  0
 14 32  1  0
 28 29  1  0
 35 36  2  0
 35 12  1  0
 37 36  1  0
 32 31  2  0
 29 30  2  0
 31 30  1  0
 30  9  1  0
  1 39  1  0
  1 40  1  0
  2 41  1  0
  2 42  1  0
  5 43  1  0
  5 44  1  0
  8 45  1  6
  9 46  1  0
  9 47  1  0
 11 48  1  0
 11 49  1  0
 12 50  1  0
 12 51  1  0
 13 52  1  0
 13 53  1  0
 17 54  1  0
 17 55  1  0
 19 56  1  0
 19 57  1  0
 22 58  1  0
 23 59  1  0
 24 60  1  0
 26 61  1  0
 27 62  1  0
 28 63  1  0
 29 64  1  0
 31 65  1  0
 32 66  1  0
 33 67  1  0
 34 68  1  0
 36 69  1  0
 37 70  1  0
 38 71  1  0
 38 72  1  0
M  CHG  1   2   1
M  END
