
     RDKit          3D

 67 73  0  0  0  0  0  0  0  0999 V2000
    3.0022    3.4899   -1.3423 C   0  0  0  0  0  0  0  0  0  0  0  0
    2.0413    2.4993   -1.5903 C   0  0  0  0  0  0  0  0  0  0  0  0
    1.9772    1.3506   -0.8002 C   0  0  0  0  0  0  0  0  0  0  0  0
    4.6411    1.8013    1.6469 C   0  0  0  0  0  0  0  0  0  0  0  0
    2.8850    1.2300    0.2285 C   0  0  0  0  0  0  0  0  0  0  0  0
    3.2604   -1.2317    0.6473 C   0  0  0  0  0  0  0  0  0  0  0  0
    4.4079   -1.6812   -0.0826 C   0  0  0  0  0  0  0  0  0  0  0  0
    6.2567   -3.1856   -1.5311 C   0  0  0  0  0  0  0  0  0  0  0  0
    5.0743   -3.7928   -1.1547 C   0  0  0  0  0  0  0  0  0  0  0  0
   -3.2026    2.0879   -0.6008 C   0  0  0  0  0  0  0  0  0  0  0  0
   -1.3433    1.2068    0.6247 C   0  0  0  0  0  0  0  0  0  0  0  0
   -3.1121   -0.3032   -0.0405 C   0  0  0  0  0  0  0  0  0  0  0  0
    3.0247    0.1188    1.2389 C   0  0  1  0  0  0  0  0  0  0  0  0
    2.3845   -2.2844    0.7004 C   0  0  0  0  0  0  0  0  0  0  0  0
    4.1601   -3.0270   -0.4348 C   0  0  0  0  0  0  0  0  0  0  0  0
    5.6157   -1.0932   -0.4807 C   0  0  0  0  0  0  0  0  0  0  0  0
    6.5232   -1.8472   -1.1990 C   0  0  0  0  0  0  0  0  0  0  0  0
   -3.7508    0.7892   -0.6298 C   0  0  0  0  0  0  0  0  0  0  0  0
   -1.9724    2.2841    0.0405 C   0  0  0  0  0  0  0  0  0  0  0  0
   -1.9020   -0.0873    0.5922 C   0  0  0  0  0  0  0  0  0  0  0  0
   -1.1553   -1.2254    1.2344 C   0  0  0  0  0  0  0  0  0  0  0  0
    3.9048    3.3480   -0.3018 C   0  0  0  0  0  0  0  0  0  0  0  0
   -4.1167    2.9369   -1.2979 C   0  0  0  0  0  0  0  0  0  0  0  0
   -5.1475    2.1439   -1.7092 C   0  0  0  0  0  0  0  0  0  0  0  0
   -6.5107   -0.7332   -0.2707 C   0  0  0  0  0  0  0  0  0  0  0  0
   -6.8891    0.1600    0.7270 C   0  0  0  0  0  0  0  0  0  0  0  0
   -7.5523   -0.2913    1.8599 C   0  0  0  0  0  0  0  0  0  0  0  0
   -7.8456   -1.6410    2.0090 C   0  0  0  0  0  0  0  0  0  0  0  0
   -7.4675   -2.5378    1.0189 C   0  0  0  0  0  0  0  0  0  0  0  0
   -6.8006   -2.0846   -0.1116 C   0  0  0  0  0  0  0  0  0  0  0  0
    3.8343    2.2075    0.4811 C   0  0  0  0  0  0  0  0  0  0  0  0
    2.9275   -3.3555    0.0506 N   0  0  0  0  0  0  0  0  0  0  0  0
    0.1593   -1.3611    0.6370 N   0  0  0  0  0  0  0  0  0  0  0  0
   -4.9323    0.8484   -1.3181 N   0  0  0  0  0  0  0  0  0  0  0  0
    4.1444    0.6025    2.0295 N   0  0  0  0  0  0  0  0  0  0  0  0
    1.1496    2.6089   -2.5883 O   0  0  0  0  0  0  0  0  0  0  0  0
    5.5650    2.4070    2.1682 O   0  0  0  0  0  0  0  0  0  0  0  0
    3.0364    4.3732   -1.9696 H   0  0  0  0  0  0  0  0  0  0  0  0
    1.2232    0.5941   -0.9753 H   0  0  0  0  0  0  0  0  0  0  0  0
    6.9891   -3.7493   -2.0943 H   0  0  0  0  0  0  0  0  0  0  0  0
    4.8641   -4.8229   -1.4137 H   0  0  0  0  0  0  0  0  0  0  0  0
   -0.3880    1.3475    1.1145 H   0  0  0  0  0  0  0  0  0  0  0  0
   -3.5405   -1.2983   -0.0770 H   0  0  0  0  0  0  0  0  0  0  0  0
    2.1176    0.0824    1.8521 H   0  0  0  0  0  0  0  0  0  0  0  0
    0.6289   -3.3669    1.2388 H   0  0  0  0  0  0  0  0  0  0  0  0
    1.0630   -2.0844    2.3508 H   0  0  0  0  0  0  0  0  0  0  0  0
    5.8401   -0.0633   -0.2377 H   0  0  0  0  0  0  0  0  0  0  0  0
    7.4577   -1.4014   -1.5145 H   0  0  0  0  0  0  0  0  0  0  0  0
   -1.5201    3.2674    0.0788 H   0  0  0  0  0  0  0  0  0  0  0  0
   -1.0132   -1.0158    2.2997 H   0  0  0  0  0  0  0  0  0  0  0  0
   -1.7596   -2.1430    1.1791 H   0  0  0  0  0  0  0  0  0  0  0  0
    4.6435    4.1163   -0.1120 H   0  0  0  0  0  0  0  0  0  0  0  0
   -4.0205    3.9962   -1.4751 H   0  0  0  0  0  0  0  0  0  0  0  0
   -6.0357    2.4003   -2.2658 H   0  0  0  0  0  0  0  0  0  0  0  0
   -5.2806   -1.0872   -1.9903 H   0  0  0  0  0  0  0  0  0  0  0  0
   -6.5732    0.0555   -2.2626 H   0  0  0  0  0  0  0  0  0  0  0  0
   -6.6644    1.2154    0.6284 H   0  0  0  0  0  0  0  0  0  0  0  0
   -7.8401    0.4140    2.6290 H   0  0  0  0  0  0  0  0  0  0  0  0
   -8.3608   -1.9913    2.8938 H   0  0  0  0  0  0  0  0  0  0  0  0
   -7.6844   -3.5925    1.1286 H   0  0  0  0  0  0  0  0  0  0  0  0
   -6.4999   -2.7902   -0.8778 H   0  0  0  0  0  0  0  0  0  0  0  0
    2.4818   -4.2531   -0.0484 H   0  0  0  0  0  0  0  0  0  0  0  0
    0.0633   -1.5920   -0.3445 H   0  0  0  0  0  0  0  0  0  0  0  0
    4.5099    0.0862    2.8138 H   0  0  0  0  0  0  0  0  0  0  0  0
    1.2639    3.4425   -3.0581 H   0  0  0  0  0  0  0  0  0  0  0  0
    1.0118   -2.3369    1.2873 C   0  0  0  0  0  0  0  0  0  0  0  0
   -5.8270   -0.2600   -1.5313 C   0  0  0  0  0  0  0  0  0  0  0  0
 23 24  2  0
 23 10  1  0
 24 34  1  0
 19 10  1  0
 19 11  2  0
 10 18  2  0
 11 20  1  0
 34 18  1  0
 34 67  1  0
 18 12  1  0
 67 25  1  0
 20 12  2  0
 20 21  1  0
 30 25  1  0
 30 29  2  0
 25 26  2  0
 37  4  2  0
 21 33  1  0
 29 28  1  0
  4 35  1  0
  4 31  1  0
 35 13  1  0
 33 66  1  0
 26 27  1  0
 66 14  1  0
 31 22  1  0
 31  5  2  0
 13  5  1  0
 13  6  1  0
 28 27  2  0
 22  1  2  0
  5  3  1  0
  1  2  1  0
 14  6  2  0
 14 32  1  0
  6  7  1  0
  3  2  2  0
  2 36  1  0
 32 15  1  0
  7 15  2  0
  7 16  1  0
 15  9  1  0
 16 17  2  0
  9  8  2  0
 17  8  1  0
  1 38  1  0
  3 39  1  0
  8 40  1  0
  9 41  1  0
 11 42  1  0
 12 43  1  0
 13 44  1  1
 66 45  1  0
 66 46  1  0
 16 47  1  0
 17 48  1  0
 19 49  1  0
 21 50  1  0
 21 51  1  0
 22 52  1  0
 23 53  1  0
 24 54  1  0
 67 55  1  0
 67 56  1  0
 26 57  1  0
 27 58  1  0
 28 59  1  0
 29 60  1  0
 30 61  1  0
 32 62  1  0
 33 63  1  0
 35 64  1  0
 36 65  1  0
M  END
