
     RDKit          3D

 25 24  0  0  0  0  0  0  0  0999 V2000
   -2.8591   -0.4974   -0.7252 O   0  0  0  0  0  0  0  0  0  0  0  0
   -2.1088    0.2052   -0.0968 C   0  0  0  0  0  0  0  0  0  0  0  0
   -0.7650   -0.2416    0.4493 C   0  0  1  0  0  0  0  0  0  0  0  0
   -0.8011   -1.6777    0.6365 N   0  0  0  0  0  0  0  0  0  0  0  0
    0.3218    0.3203   -0.4909 C   0  0  0  0  0  0  0  0  0  0  0  0
    1.7986    0.1530   -0.0798 C   0  0  1  0  0  0  0  0  0  0  0  0
    2.2985   -1.2861   -0.2375 C   0  0  0  0  0  0  0  0  0  0  0  0
    2.6200    1.0364   -1.0258 C   0  0  0  0  0  0  0  0  0  0  0  0
    2.0232    0.6253    1.3558 C   0  0  0  0  0  0  0  0  0  0  0  0
   -0.6455    0.2175    1.4347 H   0  0  0  0  0  0  0  0  0  0  0  0
   -0.6324   -2.1547   -0.2402 H   0  0  0  0  0  0  0  0  0  0  0  0
   -0.0568   -1.9587    1.2586 H   0  0  0  0  0  0  0  0  0  0  0  0
    0.1806   -0.1188   -1.4859 H   0  0  0  0  0  0  0  0  0  0  0  0
    0.1396    1.3934   -0.6077 H   0  0  0  0  0  0  0  0  0  0  0  0
    2.0879   -1.6718   -1.2374 H   0  0  0  0  0  0  0  0  0  0  0  0
    3.3796   -1.3288   -0.0884 H   0  0  0  0  0  0  0  0  0  0  0  0
    1.8547   -1.9723    0.4823 H   0  0  0  0  0  0  0  0  0  0  0  0
    2.3516    2.0898   -0.9214 H   0  0  0  0  0  0  0  0  0  0  0  0
    3.6879    0.9426   -0.8177 H   0  0  0  0  0  0  0  0  0  0  0  0
    2.4595    0.7544   -2.0688 H   0  0  0  0  0  0  0  0  0  0  0  0
    1.5090   -0.0048    2.0843 H   0  0  0  0  0  0  0  0  0  0  0  0
    3.0862    0.6032    1.6056 H   0  0  0  0  0  0  0  0  0  0  0  0
    1.6726    1.6502    1.4981 H   0  0  0  0  0  0  0  0  0  0  0  0
   -2.3567    1.4851    0.1626 O   0  0  0  0  0  0  0  0  0  0  0  0
   -3.1927    1.7519   -0.2487 H   0  0  0  0  0  0  0  0  0  0  0  0
  1  2  2  0
  2  3  1  0
  3  4  1  0
  3  5  1  0
  6  8  1  6
  5  6  1  0
  6  7  1  0
  6  9  1  0
  3 10  1  1
  4 11  1  0
  4 12  1  0
  5 13  1  0
  5 14  1  0
  7 15  1  0
  7 16  1  0
  7 17  1  0
  8 18  1  0
  8 19  1  0
  8 20  1  0
  9 21  1  0
  9 22  1  0
  9 23  1  0
  2 24  1  0
 24 25  1  0
M  END
