
     RDKit          3D

 23 24  0  0  0  0  0  0  0  0999 V2000
   -1.8967   -0.1828   -0.4875 C   0  0  0  0  0  0  0  0  0  0  0  0
   -0.6238    0.5754   -0.2823 C   0  0  0  0  0  0  0  0  0  0  0  0
    0.6143   -0.1085   -0.1082 C   0  0  0  0  0  0  0  0  0  0  0  0
    1.8010    0.6658    0.0011 C   0  0  0  0  0  0  0  0  0  0  0  0
    1.7272    2.0767   -0.0739 C   0  0  0  0  0  0  0  0  0  0  0  0
    0.5263    2.7051   -0.2371 C   0  0  0  0  0  0  0  0  0  0  0  0
   -0.6557    1.9467   -0.3371 C   0  0  0  0  0  0  0  0  0  0  0  0
    3.0429    0.0160    0.1921 C   0  0  0  0  0  0  0  0  0  0  0  0
    3.1128   -1.3462    0.2816 C   0  0  0  0  0  0  0  0  0  0  0  0
    1.9368   -2.1160    0.1857 C   0  0  0  0  0  0  0  0  0  0  0  0
    0.7207   -1.5173   -0.0054 C   0  0  0  0  0  0  0  0  0  0  0  0
   -2.0317   -1.0414   -1.3418 O   0  0  0  0  0  0  0  0  0  0  0  0
   -2.8646    0.1800    0.3707 N   0  0  0  0  0  0  0  0  0  0  0  0
   -4.1401   -0.2551    0.1890 O   0  0  0  0  0  0  0  0  0  0  0  0
    2.6409    2.6532    0.0040 H   0  0  0  0  0  0  0  0  0  0  0  0
    0.4735    3.7838   -0.2935 H   0  0  0  0  0  0  0  0  0  0  0  0
   -1.5955    2.4642   -0.4857 H   0  0  0  0  0  0  0  0  0  0  0  0
    3.9386    0.6200    0.2728 H   0  0  0  0  0  0  0  0  0  0  0  0
    4.0659   -1.8359    0.4322 H   0  0  0  0  0  0  0  0  0  0  0  0
    1.9960   -3.1937    0.2630 H   0  0  0  0  0  0  0  0  0  0  0  0
   -0.1620   -2.1361   -0.0768 H   0  0  0  0  0  0  0  0  0  0  0  0
   -2.7499    0.9244    1.0437 H   0  0  0  0  0  0  0  0  0  0  0  0
   -4.2463   -1.0295    0.7574 H   0  0  0  0  0  0  0  0  0  0  0  0
  5  6  2  0
  5  4  1  0
  6  7  1  0
  8  4  1  0
  8  9  2  0
  4  3  2  0
  7  2  2  0
  9 10  1  0
  3  2  1  0
  3 11  1  0
  2  1  1  0
 10 11  2  0
 12  1  2  0
  1 13  1  0
 13 14  1  0
  5 15  1  0
  6 16  1  0
  7 17  1  0
  8 18  1  0
  9 19  1  0
 10 20  1  0
 11 21  1  0
 13 22  1  0
 14 23  1  0
M  END
