
     RDKit          3D

 64 67  0  0  0  0  0  0  0  0999 V2000
    2.7217   -1.9203    0.1156 C   0  0  0  0  0  0  0  0  0  0  0  0
    1.4106   -2.5552   -0.0346 C   0  0  0  0  0  0  0  0  0  0  0  0
   -2.4634   -1.1688   -0.4773 C   0  0  0  0  0  0  0  0  0  0  0  0
   -5.6253    0.8688   -1.0938 C   0  0  0  0  0  0  0  0  0  0  0  0
   -3.8631    1.1698    0.5171 C   0  0  0  0  0  0  0  0  0  0  0  0
   -0.3303   -3.9011    0.0387 C   0  0  0  0  0  0  0  0  0  0  0  0
    0.9823   -3.8143    0.4354 C   0  0  0  0  0  0  0  0  0  0  0  0
   -4.4896    2.1779    2.7274 C   0  0  0  0  0  0  0  0  0  0  0  0
    7.4952   -0.6462    1.0386 C   0  0  0  0  0  0  0  0  0  0  0  0
    5.2120   -0.6659    0.4169 C   0  0  0  0  0  0  0  0  0  0  0  0
    4.1030    0.0659   -0.0610 C   0  0  0  0  0  0  0  0  0  0  0  0
    4.3498    1.3585   -0.3464 O   0  0  0  0  0  0  0  0  0  0  0  0
    3.2845    2.2119   -0.7277 C   0  0  2  0  0  0  0  0  0  0  0  0
    3.8437    3.5375   -1.2225 C   0  0  0  0  0  0  0  0  0  0  0  0
    2.6295    4.4731   -1.1931 C   0  0  0  0  0  0  0  0  0  0  0  0
    1.6633    3.8801   -0.1362 C   0  0  0  0  0  0  0  0  0  0  0  0
    2.3579    2.6279    0.4129 C   0  0  0  0  0  0  0  0  0  0  0  0
    2.8822   -0.5654   -0.2053 C   0  0  0  0  0  0  0  0  0  0  0  0
    3.8167   -2.6288    0.5815 C   0  0  0  0  0  0  0  0  0  0  0  0
    5.0531   -2.0051    0.7309 C   0  0  0  0  0  0  0  0  0  0  0  0
    0.4234   -1.9387   -0.6690 N   0  0  0  0  0  0  0  0  0  0  0  0
   -0.6153   -2.7619   -0.6164 N   0  0  0  0  0  0  0  0  0  0  0  0
   -1.8774   -2.3698   -1.2059 C   0  0  0  0  0  0  0  0  0  0  0  0
   -3.7774   -0.7325   -1.0951 C   0  0  0  0  0  0  0  0  0  0  0  0
   -4.3584    0.3748   -0.5893 N   0  0  0  0  0  0  0  0  0  0  0  0
   -6.6545    0.9065    0.0311 C   0  0  2  0  0  0  0  0  0  0  0  0
   -6.1538    1.6637    1.1226 O   0  0  0  0  0  0  0  0  0  0  0  0
   -4.9062    1.2241    1.6284 C   0  0  1  0  0  0  0  0  0  0  0  0
   -4.2734   -1.3678   -2.0172 O   0  0  0  0  0  0  0  0  0  0  0  0
   -7.1235   -0.4810    0.4467 C   0  0  0  0  0  0  0  0  0  0  0  0
   -2.6151   -1.4207    0.5764 H   0  0  0  0  0  0  0  0  0  0  0  0
   -1.7438   -0.3468   -0.4963 H   0  0  0  0  0  0  0  0  0  0  0  0
   -5.9732    0.2409   -1.9100 H   0  0  0  0  0  0  0  0  0  0  0  0
   -2.9360    0.7655    0.9150 H   0  0  0  0  0  0  0  0  0  0  0  0
   -3.6489    2.1839    0.1596 H   0  0  0  0  0  0  0  0  0  0  0  0
   -1.0664   -4.6767    0.1761 H   0  0  0  0  0  0  0  0  0  0  0  0
    1.5393   -4.5493    0.9922 H   0  0  0  0  0  0  0  0  0  0  0  0
   -4.3469    3.1883    2.3402 H   0  0  0  0  0  0  0  0  0  0  0  0
   -5.2383    2.2155    3.5186 H   0  0  0  0  0  0  0  0  0  0  0  0
   -3.5502    1.8516    3.1740 H   0  0  0  0  0  0  0  0  0  0  0  0
    8.3001    0.0840    1.0667 H   0  0  0  0  0  0  0  0  0  0  0  0
    7.3284   -1.0252    2.0505 H   0  0  0  0  0  0  0  0  0  0  0  0
    7.7996   -1.4788    0.3986 H   0  0  0  0  0  0  0  0  0  0  0  0
    2.7005    1.7466   -1.5332 H   0  0  0  0  0  0  0  0  0  0  0  0
    4.6119    3.8822   -0.5244 H   0  0  0  0  0  0  0  0  0  0  0  0
    4.3022    3.4628   -2.2094 H   0  0  0  0  0  0  0  0  0  0  0  0
    2.9231    5.4950   -0.9552 H   0  0  0  0  0  0  0  0  0  0  0  0
    2.1476    4.5044   -2.1711 H   0  0  0  0  0  0  0  0  0  0  0  0
    1.4356    4.5891    0.6594 H   0  0  0  0  0  0  0  0  0  0  0  0
    0.7133    3.6127   -0.6006 H   0  0  0  0  0  0  0  0  0  0  0  0
    1.6515    1.8534    0.7120 H   0  0  0  0  0  0  0  0  0  0  0  0
    2.9684    2.8736    1.2865 H   0  0  0  0  0  0  0  0  0  0  0  0
    2.0202   -0.0189   -0.5616 H   0  0  0  0  0  0  0  0  0  0  0  0
    3.7300   -3.6783    0.8312 H   0  0  0  0  0  0  0  0  0  0  0  0
    5.8873   -2.5879    1.0974 H   0  0  0  0  0  0  0  0  0  0  0  0
   -2.5421   -3.2289   -1.1479 H   0  0  0  0  0  0  0  0  0  0  0  0
   -1.7139   -2.1479   -2.2601 H   0  0  0  0  0  0  0  0  0  0  0  0
   -7.5199    1.4676   -0.3316 H   0  0  0  0  0  0  0  0  0  0  0  0
   -5.0006    0.2125    2.0479 H   0  0  0  0  0  0  0  0  0  0  0  0
   -6.3070   -1.1299    0.7660 H   0  0  0  0  0  0  0  0  0  0  0  0
   -7.8404   -0.4141    1.2652 H   0  0  0  0  0  0  0  0  0  0  0  0
   -7.6200   -0.9700   -0.3920 H   0  0  0  0  0  0  0  0  0  0  0  0
    6.3605    0.0257    0.5320 O   0  0  0  0  0  0  0  0  0  0  0  0
   -5.4763    1.8793   -1.4893 H   0  0  0  0  0  0  0  0  0  0  0  0
  9 63  1  0
 20 19  1  0
 20 10  2  0
 19  1  2  0
 63 10  1  0
  3 23  1  0
  3 24  1  0
 10 11  1  0
 21 22  1  0
 21  2  2  0
 23 22  1  0
  1  2  1  0
  1 18  1  0
 22  6  1  0
  2  7  1  0
 11 18  2  0
 11 12  1  0
 24 29  2  0
 24 25  1  0
  4 25  1  0
  4 26  1  0
 30 26  1  0
 25  5  1  0
  6  7  2  0
 12 13  1  0
 26 27  1  0
  5 28  1  0
 27 28  1  0
 13 14  1  0
 13 17  1  0
 28  8  1  0
 14 15  1  0
 17 16  1  0
 16 15  1  0
  3 31  1  0
  3 32  1  0
  4 64  1  0
  4 33  1  0
  5 34  1  0
  5 35  1  0
  6 36  1  0
  7 37  1  0
  8 38  1  0
  8 39  1  0
  8 40  1  0
  9 41  1  0
  9 42  1  0
  9 43  1  0
 13 44  1  6
 14 45  1  0
 14 46  1  0
 15 47  1  0
 15 48  1  0
 16 49  1  0
 16 50  1  0
 17 51  1  0
 17 52  1  0
 18 53  1  0
 19 54  1  0
 20 55  1  0
 23 56  1  0
 23 57  1  0
 26 58  1  6
 28 59  1  1
 30 60  1  0
 30 61  1  0
 30 62  1  0
M  END
