
     RDKit          3D

 13 13  0  0  0  0  0  0  0  0999 V2000
   -2.7863   -0.5346    0.0626 Cl  0  0  0  0  0  0  0  0  0  0  0  0
   -1.2759    0.3023    0.0440 C   0  0  0  0  0  0  0  0  0  0  0  0
   -1.2476    1.6826   -0.0459 C   0  0  0  0  0  0  0  0  0  0  0  0
   -0.0298    2.3464   -0.0597 C   0  0  0  0  0  0  0  0  0  0  0  0
    1.1522    1.6278    0.0147 C   0  0  0  0  0  0  0  0  0  0  0  0
    1.1057    0.2472    0.1039 C   0  0  0  0  0  0  0  0  0  0  0  0
    2.5763   -0.6657    0.1991 Cl  0  0  0  0  0  0  0  0  0  0  0  0
   -0.1032   -0.4506    0.1218 C   0  0  0  0  0  0  0  0  0  0  0  0
   -0.2005   -1.7781    0.2079 O   0  0  0  0  0  0  0  0  0  0  0  0
   -2.1749    2.2355   -0.1056 H   0  0  0  0  0  0  0  0  0  0  0  0
   -0.0024    3.4245   -0.1283 H   0  0  0  0  0  0  0  0  0  0  0  0
    2.1079    2.1337    0.0040 H   0  0  0  0  0  0  0  0  0  0  0  0
    0.6732   -2.1864    0.2693 H   0  0  0  0  0  0  0  0  0  0  0  0
  5  4  2  0
  5  6  1  0
  4  3  1  0
  7  6  1  0
  6  8  2  0
  3  2  2  0
  8  2  1  0
  8  9  1  0
  2  1  1  0
  3 10  1  0
  4 11  1  0
  5 12  1  0
  9 13  1  0
M  END
