
     RDKit          3D

 58 59  0  0  0  0  0  0  0  0999 V2000
    6.1220   -0.5006   -0.7120 C   0  0  0  0  0  0  0  0  0  0  0  0
    7.0665    0.4113   -1.1510 C   0  0  0  0  0  0  0  0  0  0  0  0
    7.2173    1.6244   -0.4954 C   0  0  0  0  0  0  0  0  0  0  0  0
    6.4151    1.9145    0.6015 C   0  0  0  0  0  0  0  0  0  0  0  0
    5.4673    0.9981    1.0325 C   0  0  0  0  0  0  0  0  0  0  0  0
    5.3090   -0.2205    0.3836 C   0  0  0  0  0  0  0  0  0  0  0  0
    4.2549   -1.1922    0.8276 C   0  0  0  0  0  0  0  0  0  0  0  0
    3.0079   -1.0668   -0.0490 C   0  0  0  0  0  0  0  0  0  0  0  0
    1.8905   -1.8645    0.4274 N   0  0  0  0  0  0  0  0  0  0  0  0
    2.1824   -3.2888    0.5268 C   0  0  0  0  0  0  0  0  0  0  0  0
    2.5820   -4.0076   -0.7638 C   0  0  0  0  0  0  0  0  0  0  0  0
    2.8451   -5.4857   -0.5095 C   0  0  0  0  0  0  0  0  0  0  0  0
    0.6726   -1.5365   -0.2918 C   0  0  0  0  0  0  0  0  0  0  0  0
   -0.6194   -1.8644    0.4567 C   0  0  1  0  0  0  0  0  0  0  0  0
   -1.7592   -1.0508   -0.1421 C   0  0  0  0  0  0  0  0  0  0  0  0
   -2.9271   -1.3245    0.6064 O   0  0  0  0  0  0  0  0  0  0  0  0
   -4.0946   -0.7838    0.2191 C   0  0  0  0  0  0  0  0  0  0  0  0
   -4.2534    0.0365   -0.8954 C   0  0  0  0  0  0  0  0  0  0  0  0
   -5.5096    0.5452   -1.2020 C   0  0  0  0  0  0  0  0  0  0  0  0
   -6.6153    0.2340   -0.4250 C   0  0  0  0  0  0  0  0  0  0  0  0
   -6.4541   -0.5942    0.6833 C   0  0  0  0  0  0  0  0  0  0  0  0
   -5.2074   -1.0908    1.0068 C   0  0  0  0  0  0  0  0  0  0  0  0
   -7.9092    0.7195   -0.7582 N   0  0  0  0  0  0  0  0  0  0  0  0
   -8.5145    2.0312    0.0630 S   0  0  1  0  0  0  0  0  0  0  0  0
   -7.4863    3.4160   -0.3671 C   0  0  0  0  0  0  0  0  0  0  0  0
   -9.8470    2.2562   -0.4725 O   0  0  0  0  0  0  0  0  0  0  0  0
   -8.3432    1.7658    1.4815 O   0  0  0  0  0  0  0  0  0  0  0  0
   -0.9451   -3.2369    0.4780 O   0  0  0  0  0  0  0  0  0  0  0  0
    6.5875    3.4093    1.4430 Cl  0  0  0  0  0  0  0  0  0  0  0  0
    8.3988    2.7512   -1.0480 Cl  0  0  0  0  0  0  0  0  0  0  0  0
    6.0243   -1.4462   -1.2311 H   0  0  0  0  0  0  0  0  0  0  0  0
    7.6921    0.1819   -2.0027 H   0  0  0  0  0  0  0  0  0  0  0  0
    4.8501    1.2377    1.8892 H   0  0  0  0  0  0  0  0  0  0  0  0
    4.6600   -2.2051    0.7787 H   0  0  0  0  0  0  0  0  0  0  0  0
    3.9805   -1.0045    1.8681 H   0  0  0  0  0  0  0  0  0  0  0  0
    2.6940   -0.0193   -0.0388 H   0  0  0  0  0  0  0  0  0  0  0  0
    3.2832   -1.2888   -1.0930 H   0  0  0  0  0  0  0  0  0  0  0  0
    2.9799   -3.4247    1.2626 H   0  0  0  0  0  0  0  0  0  0  0  0
    1.3124   -3.7870    0.9536 H   0  0  0  0  0  0  0  0  0  0  0  0
    1.7953   -3.9049   -1.5164 H   0  0  0  0  0  0  0  0  0  0  0  0
    3.4782   -3.5501   -1.1932 H   0  0  0  0  0  0  0  0  0  0  0  0
    3.1469   -6.0008   -1.4219 H   0  0  0  0  0  0  0  0  0  0  0  0
    3.6401   -5.6258    0.2257 H   0  0  0  0  0  0  0  0  0  0  0  0
    1.9533   -5.9874   -0.1292 H   0  0  0  0  0  0  0  0  0  0  0  0
    0.6825   -0.4550   -0.4517 H   0  0  0  0  0  0  0  0  0  0  0  0
    0.6274   -1.9795   -1.3010 H   0  0  0  0  0  0  0  0  0  0  0  0
   -0.4886   -1.5688    1.5022 H   0  0  0  0  0  0  0  0  0  0  0  0
   -1.5196    0.0175   -0.1017 H   0  0  0  0  0  0  0  0  0  0  0  0
   -1.9006   -1.3213   -1.1969 H   0  0  0  0  0  0  0  0  0  0  0  0
   -3.4201    0.2995   -1.5322 H   0  0  0  0  0  0  0  0  0  0  0  0
   -5.6197    1.1889   -2.0666 H   0  0  0  0  0  0  0  0  0  0  0  0
   -7.3101   -0.8606    1.2879 H   0  0  0  0  0  0  0  0  0  0  0  0
   -5.0870   -1.7352    1.8685 H   0  0  0  0  0  0  0  0  0  0  0  0
   -8.1026    0.7782   -1.7527 H   0  0  0  0  0  0  0  0  0  0  0  0
   -7.5447    3.5862   -1.4395 H   0  0  0  0  0  0  0  0  0  0  0  0
   -7.8583    4.2873    0.1695 H   0  0  0  0  0  0  0  0  0  0  0  0
   -6.4596    3.2126   -0.0706 H   0  0  0  0  0  0  0  0  0  0  0  0
   -0.9480   -3.5649   -0.4282 H   0  0  0  0  0  0  0  0  0  0  0  0
 19 18  2  0
 19 20  1  0
 18 17  1  0
 28 14  1  0
 23 20  1  0
 24 23  1  6
 20 21  2  0
 29  4  1  0
 17 16  1  0
 17 22  2  0
 16 15  1  0
  4  5  2  0
  4  3  1  0
  5  6  1  0
 30  3  1  0
 26 24  2  0
  3  2  2  0
 27 24  2  0
  6  7  1  0
  6  1  2  0
  7  8  1  0
  2  1  1  0
 24 25  1  0
 14 15  1  0
 14 13  1  0
 21 22  1  0
  9  8  1  0
  9 13  1  0
  9 10  1  0
 11 12  1  0
 11 10  1  0
  1 31  1  0
  2 32  1  0
  5 33  1  0
  7 34  1  0
  7 35  1  0
  8 36  1  0
  8 37  1  0
 10 38  1  0
 10 39  1  0
 11 40  1  0
 11 41  1  0
 12 42  1  0
 12 43  1  0
 12 44  1  0
 13 45  1  0
 13 46  1  0
 14 47  1  1
 15 48  1  0
 15 49  1  0
 18 50  1  0
 19 51  1  0
 21 52  1  0
 22 53  1  0
 23 54  1  0
 25 55  1  0
 25 56  1  0
 25 57  1  0
 28 58  1  0
M  END
