
     RDKit          3D

 17 17  0  0  0  0  0  0  0  0999 V2000
   -0.7899   -0.4906    2.8415 O   0  0  0  0  0  0  0  0  0  0  0  0
    0.0938    0.1426    2.0723 C   0  0  0  0  0  0  0  0  0  0  0  0
    1.0838    0.6688    2.5154 O   0  0  0  0  0  0  0  0  0  0  0  0
   -0.3167    0.1290    0.6441 C   0  0  0  0  0  0  0  0  0  0  0  0
   -1.6755    0.0901    0.3125 C   0  0  0  0  0  0  0  0  0  0  0  0
   -2.0673    0.1188   -1.0107 C   0  0  0  0  0  0  0  0  0  0  0  0
    0.6433    0.1675   -0.3659 C   0  0  0  0  0  0  0  0  0  0  0  0
    1.9619    0.1017   -0.0732 O   0  0  0  0  0  0  0  0  0  0  0  0
    0.2338    0.1760   -1.7085 C   0  0  0  0  0  0  0  0  0  0  0  0
   -1.1158    0.1650   -2.0220 C   0  0  0  0  0  0  0  0  0  0  0  0
    1.2137    0.1882   -2.6318 O   0  0  0  0  0  0  0  0  0  0  0  0
   -0.5269   -0.4015    3.7703 H   0  0  0  0  0  0  0  0  0  0  0  0
   -2.4251    0.0598    1.0904 H   0  0  0  0  0  0  0  0  0  0  0  0
   -3.1186    0.1088   -1.2640 H   0  0  0  0  0  0  0  0  0  0  0  0
    2.4603    0.7450   -0.5919 H   0  0  0  0  0  0  0  0  0  0  0  0
   -1.4247    0.1764   -3.0610 H   0  0  0  0  0  0  0  0  0  0  0  0
    0.8386    0.1706   -3.5190 H   0  0  0  0  0  0  0  0  0  0  0  0
  1  2  1  0
  1 12  1  0
  2  3  2  0
  2  4  1  0
  4  5  2  0
  4  7  1  0
  5  6  1  0
  5 13  1  0
  6 10  2  0
  6 14  1  0
  7  8  1  0
  7  9  2  0
  8 15  1  0
  9 10  1  0
  9 11  1  0
 10 16  1  0
 11 17  1  0
M  END
