
     RDKit          3D

 16 16  0  0  0  0  0  0  0  0999 V2000
    1.9646    0.3260   -0.3508 C   0  0  0  0  0  0  0  0  0  0  0  0
    0.4760    0.1902   -0.1693 C   0  0  0  0  0  0  0  0  0  0  0  0
   -0.3689    1.2565   -0.4674 C   0  0  0  0  0  0  0  0  0  0  0  0
   -1.7367    1.1029   -0.3189 C   0  0  0  0  0  0  0  0  0  0  0  0
   -1.5032   -1.0340    0.3946 C   0  0  0  0  0  0  0  0  0  0  0  0
   -0.1214   -0.9827    0.2756 C   0  0  0  0  0  0  0  0  0  0  0  0
    2.7094   -0.7175    0.3234 N   0  0  0  0  0  0  0  0  0  0  0  0
   -2.3095   -0.0200    0.1058 N   0  0  0  0  0  0  0  0  0  0  0  0
    2.1746    0.2569   -1.4223 H   0  0  0  0  0  0  0  0  0  0  0  0
    2.2528    1.3446   -0.0581 H   0  0  0  0  0  0  0  0  0  0  0  0
    0.0306    2.2025   -0.8118 H   0  0  0  0  0  0  0  0  0  0  0  0
   -2.4014    1.9283   -0.5502 H   0  0  0  0  0  0  0  0  0  0  0  0
   -1.9784   -1.9450    0.7430 H   0  0  0  0  0  0  0  0  0  0  0  0
    0.4773   -1.8459    0.5306 H   0  0  0  0  0  0  0  0  0  0  0  0
    3.6765   -0.6787    0.0307 H   0  0  0  0  0  0  0  0  0  0  0  0
    2.7120   -0.5470    1.3210 H   0  0  0  0  0  0  0  0  0  0  0  0
  1  2  1  0
  1  7  1  0
  2  3  2  0
  2  6  1  0
  3  4  1  0
  4  8  2  0
  5  6  2  0
  5  8  1  0
  1  9  1  0
  1 10  1  0
  3 11  1  0
  4 12  1  0
  5 13  1  0
  6 14  1  0
  7 15  1  0
  7 16  1  0
M  END
