
     RDKit          3D

 70 74  0  0  0  0  0  0  0  0999 V2000
   -0.5765    1.7080   -0.9462 N   0  0  0  0  0  0  0  0  0  0  0  0
    1.7005   -0.7014    0.0509 C   0  0  0  0  0  0  0  0  0  0  0  0
    1.7582    2.1325   -0.3175 C   0  0  0  0  0  0  0  0  0  0  0  0
   -2.6824    0.5918   -0.5872 C   0  0  0  0  0  0  0  0  0  0  0  0
    2.9488   -1.2738   -0.1526 C   0  0  0  0  0  0  0  0  0  0  0  0
    1.2168   -0.5897    1.3517 C   0  0  0  0  0  0  0  0  0  0  0  0
    3.1014    2.2119   -0.6690 C   0  0  0  0  0  0  0  0  0  0  0  0
    1.3291    2.7092    0.8709 C   0  0  0  0  0  0  0  0  0  0  0  0
   -3.5784    0.3168   -1.6004 C   0  0  0  0  0  0  0  0  0  0  0  0
   -3.1621    0.8695    0.7015 C   0  0  0  0  0  0  0  0  0  0  0  0
    3.7144   -1.7260    0.9122 C   0  0  0  0  0  0  0  0  0  0  0  0
    1.9654   -1.0392    2.4264 C   0  0  0  0  0  0  0  0  0  0  0  0
    3.9929    2.8498    0.1754 C   0  0  0  0  0  0  0  0  0  0  0  0
    2.2347    3.3524    1.7027 C   0  0  0  0  0  0  0  0  0  0  0  0
   -4.9520    0.3304   -1.3845 C   0  0  0  0  0  0  0  0  0  0  0  0
   -4.5284    0.8929    0.9323 C   0  0  0  0  0  0  0  0  0  0  0  0
    3.2117   -1.6027    2.1960 C   0  0  0  0  0  0  0  0  0  0  0  0
    3.5775    3.4283    1.3648 C   0  0  0  0  0  0  0  0  0  0  0  0
   -5.4224    0.6254   -0.1099 C   0  0  0  0  0  0  0  0  0  0  0  0
    4.1525   -2.1662    3.5394 Cl  0  0  0  0  0  0  0  0  0  0  0  0
    5.6684    2.9288   -0.2702 Cl  0  0  0  0  0  0  0  0  0  0  0  0
   -7.6894    0.4490   -0.7846 C   0  0  0  0  0  0  0  0  0  0  0  0
   -1.3613    1.1459    3.8265 C   0  0  0  0  0  0  0  0  0  0  0  0
   -2.8998    2.9582    3.0002 C   0  0  0  0  0  0  0  0  0  0  0  0
   -0.4321   -3.8394   -3.5268 C   0  0  0  0  0  0  0  0  0  0  0  0
   -1.2064   -4.7774   -2.9713 N   0  0  0  0  0  0  0  0  0  0  0  0
   -0.1748   -3.8014   -4.7223 O   0  0  0  0  0  0  0  0  0  0  0  0
   -1.5145   -4.9078   -1.5597 C   0  0  0  0  0  0  0  0  0  0  0  0
   -0.3186   -2.8300   -1.2537 N   0  0  0  0  0  0  0  0  0  0  0  0
   -0.4710   -4.1764   -0.7464 C   0  0  0  0  0  0  0  0  0  0  0  0
   -0.4998   -0.5363   -1.0469 N   0  0  0  0  0  0  0  0  0  0  0  0
   -6.7239    0.6794    0.2229 O   0  0  0  0  0  0  0  0  0  0  0  0
    0.1622   -2.7745   -2.6154 C   0  0  0  0  0  0  0  0  0  0  0  0
   -0.9228   -1.7980   -0.6140 C   0  0  0  0  0  0  0  0  0  0  0  0
   -1.7294   -1.9415    0.2825 O   0  0  0  0  0  0  0  0  0  0  0  0
   -1.2312    0.6276   -0.8401 C   0  0  0  0  0  0  0  0  0  0  0  0
   -2.2221    1.0708    1.6349 O   0  0  0  0  0  0  0  0  0  0  0  0
    0.8089    1.3897   -1.2207 C   0  0  1  0  0  0  0  0  0  0  0  0
    0.9220   -0.1774   -1.1237 C   0  0  1  0  0  0  0  0  0  0  0  0
   -2.5620    1.4779    2.9629 C   0  0  1  0  0  0  0  0  0  0  0  0
    3.3388   -1.3728   -1.1588 H   0  0  0  0  0  0  0  0  0  0  0  0
    0.2470   -0.1492    1.5477 H   0  0  0  0  0  0  0  0  0  0  0  0
    3.4499    1.7697   -1.5939 H   0  0  0  0  0  0  0  0  0  0  0  0
    0.2844    2.6485    1.1467 H   0  0  0  0  0  0  0  0  0  0  0  0
   -3.2073    0.0922   -2.5929 H   0  0  0  0  0  0  0  0  0  0  0  0
    4.6847   -2.1703    0.7374 H   0  0  0  0  0  0  0  0  0  0  0  0
    1.5826   -0.9470    3.4338 H   0  0  0  0  0  0  0  0  0  0  0  0
    1.8954    3.7994    2.6280 H   0  0  0  0  0  0  0  0  0  0  0  0
   -5.6183    0.1214   -2.2089 H   0  0  0  0  0  0  0  0  0  0  0  0
   -4.9372    1.1112    1.9101 H   0  0  0  0  0  0  0  0  0  0  0  0
    4.2839    3.9286    2.0131 H   0  0  0  0  0  0  0  0  0  0  0  0
   -8.6617    0.5682   -0.3133 H   0  0  0  0  0  0  0  0  0  0  0  0
   -7.6023    1.1678   -1.6032 H   0  0  0  0  0  0  0  0  0  0  0  0
   -7.6192   -0.5617   -1.1945 H   0  0  0  0  0  0  0  0  0  0  0  0
   -1.5589    1.4315    4.8593 H   0  0  0  0  0  0  0  0  0  0  0  0
   -1.1438    0.0773    3.8096 H   0  0  0  0  0  0  0  0  0  0  0  0
   -0.4723    1.6863    3.4943 H   0  0  0  0  0  0  0  0  0  0  0  0
   -3.7442    3.2089    2.3573 H   0  0  0  0  0  0  0  0  0  0  0  0
   -3.1609    3.2522    4.0168 H   0  0  0  0  0  0  0  0  0  0  0  0
   -2.0430    3.5562    2.6845 H   0  0  0  0  0  0  0  0  0  0  0  0
   -2.5094   -4.5103   -1.3432 H   0  0  0  0  0  0  0  0  0  0  0  0
   -1.5167   -5.9661   -1.2991 H   0  0  0  0  0  0  0  0  0  0  0  0
   -0.7505   -4.1568    0.3030 H   0  0  0  0  0  0  0  0  0  0  0  0
    0.4941   -4.6848   -0.8242 H   0  0  0  0  0  0  0  0  0  0  0  0
    1.2514   -2.8820   -2.6595 H   0  0  0  0  0  0  0  0  0  0  0  0
   -0.0896   -1.8163   -3.0675 H   0  0  0  0  0  0  0  0  0  0  0  0
    1.0317    1.6771   -2.2533 H   0  0  0  0  0  0  0  0  0  0  0  0
    1.3808   -0.5454   -2.0413 H   0  0  0  0  0  0  0  0  0  0  0  0
   -3.4152    0.8904    3.3190 H   0  0  0  0  0  0  0  0  0  0  0  0
   -1.6196   -5.4485   -3.6025 H   0  0  0  0  0  0  0  0  0  0  0  0
  1 36  2  0
  1 38  1  0
  2  5  2  0
  2  6  1  0
  2 39  1  0
  3  7  2  0
  3  8  1  0
  3 38  1  0
  4  9  2  0
  4 10  1  0
  4 36  1  0
  5 11  1  0
  6 12  2  0
  7 13  1  0
  8 14  2  0
  9 15  1  0
 10 16  2  0
 10 37  1  0
 11 17  2  0
 12 17  1  0
 13 18  2  0
 14 18  1  0
 15 19  2  0
 16 19  1  0
 19 32  1  0
 22 32  1  0
 23 40  1  0
 24 40  1  0
 25 26  1  0
 25 27  2  0
 25 33  1  0
 26 28  1  0
 28 30  1  0
 29 30  1  0
 29 33  1  0
 29 34  1  0
 31 34  1  0
 31 36  1  0
 31 39  1  0
 34 35  2  0
 37 40  1  0
 38 39  1  0
 13 21  1  0
 17 20  1  0
  5 41  1  0
  6 42  1  0
  7 43  1  0
  8 44  1  0
  9 45  1  0
 11 46  1  0
 12 47  1  0
 14 48  1  0
 15 49  1  0
 16 50  1  0
 18 51  1  0
 22 52  1  0
 22 53  1  0
 22 54  1  0
 23 55  1  0
 23 56  1  0
 23 57  1  0
 24 58  1  0
 24 59  1  0
 24 60  1  0
 26 70  1  0
 28 61  1  0
 28 62  1  0
 30 63  1  0
 30 64  1  0
 33 65  1  0
 33 66  1  0
 38 67  1  6
 39 68  1  6
 40 69  1  1
M  END
