
     RDKit          3D

 82 85  0  0  0  0  0  0  0  0999 V2000
    2.7109   -0.8369    0.2623 C   0  0  0  0  0  0  0  0  0  0  0  0
    1.6974   -1.3444    0.7234 O   0  0  0  0  0  0  0  0  0  0  0  0
    3.9388   -1.6429   -0.0991 C   0  0  0  0  0  0  0  0  0  0  0  0
    4.1107   -2.8754    0.7867 C   0  0  0  0  0  0  0  0  0  0  0  0
    5.3107   -3.6811    0.3734 C   0  0  0  0  0  0  0  0  0  0  0  0
    6.5548   -3.4621    0.9601 C   0  0  0  0  0  0  0  0  0  0  0  0
    7.6711   -4.1831    0.5561 C   0  0  0  0  0  0  0  0  0  0  0  0
    7.5588   -5.1360   -0.4478 C   0  0  0  0  0  0  0  0  0  0  0  0
    6.3238   -5.3611   -1.0431 C   0  0  0  0  0  0  0  0  0  0  0  0
    5.2110   -4.6387   -0.6344 C   0  0  0  0  0  0  0  0  0  0  0  0
    1.6762    1.3569    0.2777 C   0  0  1  0  0  0  0  0  0  0  0  0
    1.9791    2.7715   -0.2025 C   0  0  0  0  0  0  0  0  0  0  0  0
    3.0435    3.4718    0.6307 C   0  0  0  0  0  0  0  0  0  0  0  0
    2.9232    5.3802   -0.9576 C   0  0  0  0  0  0  0  0  0  0  0  0
    4.0451    5.4647   -1.9853 C   0  0  0  0  0  0  0  0  0  0  0  0
    5.2646    6.1606   -1.3885 C   0  0  0  0  0  0  0  0  0  0  0  0
    5.6811    5.5119   -0.0709 C   0  0  0  0  0  0  0  0  0  0  0  0
    4.4993    5.4119    0.8876 C   0  0  0  0  0  0  0  0  0  0  0  0
    0.4507    0.8602   -0.4933 C   0  0  0  0  0  0  0  0  0  0  0  0
    3.3915    4.7163    0.2492 N   0  0  0  0  0  0  0  0  0  0  0  0
    3.5342    2.9184    1.6070 O   0  0  0  0  0  0  0  0  0  0  0  0
    2.7913    0.4818    0.0214 N   0  0  0  0  0  0  0  0  0  0  0  0
   -2.1276   -1.4665    1.0689 O   0  0  0  0  0  0  0  0  0  0  0  0
   -0.7021    0.9130    0.1884 N   0  0  0  0  0  0  0  0  0  0  0  0
   -1.9346    0.4163   -0.3634 C   0  0  2  0  0  0  0  0  0  0  0  0
   -3.1064    1.0383    0.3905 C   0  0  0  0  0  0  0  0  0  0  0  0
   -2.9717    1.5451    1.4930 O   0  0  0  0  0  0  0  0  0  0  0  0
   -2.0208   -1.1071   -0.2797 C   0  0  0  0  0  0  0  0  0  0  0  0
   -2.0057   -2.8510    1.2738 C   0  0  0  0  0  0  0  0  0  0  0  0
   -8.7463   -1.1902   -1.0979 C   0  0  0  0  0  0  0  0  0  0  0  0
   -8.6806    0.1290   -1.4427 C   0  0  0  0  0  0  0  0  0  0  0  0
   -7.7684   -1.7595   -0.2475 C   0  0  0  0  0  0  0  0  0  0  0  0
   -5.7531   -1.5461    1.1034 C   0  0  0  0  0  0  0  0  0  0  0  0
   -6.7104   -0.9495    0.2466 C   0  0  0  0  0  0  0  0  0  0  0  0
   -5.8427   -2.8689    1.4459 C   0  0  0  0  0  0  0  0  0  0  0  0
   -4.2816    0.9311   -0.2425 N   0  0  0  0  0  0  0  0  0  0  0  0
   -5.5490    1.3209    0.3431 C   0  0  0  0  0  0  0  0  0  0  0  0
   -6.6580    0.4238   -0.1349 C   0  0  0  0  0  0  0  0  0  0  0  0
   -7.6285    0.9326   -0.9583 C   0  0  0  0  0  0  0  0  0  0  0  0
   -6.8900   -3.6696    0.9498 C   0  0  0  0  0  0  0  0  0  0  0  0
   -7.8315   -3.1235    0.1218 C   0  0  0  0  0  0  0  0  0  0  0  0
    3.8346   -1.9538   -1.1439 H   0  0  0  0  0  0  0  0  0  0  0  0
    4.8335   -1.0172   -0.0553 H   0  0  0  0  0  0  0  0  0  0  0  0
    4.2153   -2.5631    1.8282 H   0  0  0  0  0  0  0  0  0  0  0  0
    3.2116   -3.4904    0.7296 H   0  0  0  0  0  0  0  0  0  0  0  0
    6.6498   -2.7221    1.7467 H   0  0  0  0  0  0  0  0  0  0  0  0
    8.6283   -4.0039    1.0293 H   0  0  0  0  0  0  0  0  0  0  0  0
    8.4259   -5.7032   -0.7611 H   0  0  0  0  0  0  0  0  0  0  0  0
    6.2270   -6.1042   -1.8244 H   0  0  0  0  0  0  0  0  0  0  0  0
    4.2501   -4.8236   -1.1016 H   0  0  0  0  0  0  0  0  0  0  0  0
    1.4560    1.3761    1.3493 H   0  0  0  0  0  0  0  0  0  0  0  0
    2.2758    2.7363   -1.2546 H   0  0  0  0  0  0  0  0  0  0  0  0
    1.0560    3.3568   -0.1666 H   0  0  0  0  0  0  0  0  0  0  0  0
    2.5951    6.3877   -0.6826 H   0  0  0  0  0  0  0  0  0  0  0  0
    2.0532    4.8736   -1.3641 H   0  0  0  0  0  0  0  0  0  0  0  0
    4.3104    4.4538   -2.3109 H   0  0  0  0  0  0  0  0  0  0  0  0
    3.6893    6.0016   -2.8671 H   0  0  0  0  0  0  0  0  0  0  0  0
    6.0946    6.1474   -2.0974 H   0  0  0  0  0  0  0  0  0  0  0  0
    5.0224    7.2138   -1.2108 H   0  0  0  0  0  0  0  0  0  0  0  0
    6.0765    4.5084   -0.2560 H   0  0  0  0  0  0  0  0  0  0  0  0
    6.4796    6.0872    0.4024 H   0  0  0  0  0  0  0  0  0  0  0  0
    4.7742    4.8956    1.8029 H   0  0  0  0  0  0  0  0  0  0  0  0
    4.1584    6.4143    1.1655 H   0  0  0  0  0  0  0  0  0  0  0  0
    3.6502    0.8687   -0.3332 H   0  0  0  0  0  0  0  0  0  0  0  0
   -1.9913    0.6972   -1.4180 H   0  0  0  0  0  0  0  0  0  0  0  0
   -1.1211   -1.5348   -0.7403 H   0  0  0  0  0  0  0  0  0  0  0  0
   -2.8827   -1.4674   -0.8588 H   0  0  0  0  0  0  0  0  0  0  0  0
   -2.1299   -3.0438    2.3387 H   0  0  0  0  0  0  0  0  0  0  0  0
   -2.7696   -3.4181    0.7290 H   0  0  0  0  0  0  0  0  0  0  0  0
   -1.0210   -3.2210    0.9655 H   0  0  0  0  0  0  0  0  0  0  0  0
   -0.6832    1.1045    1.1782 H   0  0  0  0  0  0  0  0  0  0  0  0
   -9.5467   -1.8175   -1.4716 H   0  0  0  0  0  0  0  0  0  0  0  0
   -9.4292    0.5649   -2.0909 H   0  0  0  0  0  0  0  0  0  0  0  0
   -4.9358   -0.9609    1.5007 H   0  0  0  0  0  0  0  0  0  0  0  0
   -5.1032   -3.3052    2.1048 H   0  0  0  0  0  0  0  0  0  0  0  0
   -4.2960    0.5855   -1.1893 H   0  0  0  0  0  0  0  0  0  0  0  0
   -5.4524    1.2782    1.4288 H   0  0  0  0  0  0  0  0  0  0  0  0
   -5.7847    2.3571    0.0884 H   0  0  0  0  0  0  0  0  0  0  0  0
   -7.5867    1.9757   -1.2483 H   0  0  0  0  0  0  0  0  0  0  0  0
   -6.9477   -4.7137    1.2280 H   0  0  0  0  0  0  0  0  0  0  0  0
   -8.6415   -3.7309   -0.2640 H   0  0  0  0  0  0  0  0  0  0  0  0
    0.5317    0.5158   -1.6606 O   0  0  0  0  0  0  0  0  0  0  0  0
 31 39  1  0
 31 30  2  0
 39 38  2  0
 30 32  1  0
 38 37  1  0
 38 34  1  0
 32 34  2  0
 32 41  1  0
 37 36  1  0
 34 33  1  0
 41 40  2  0
 36 26  1  0
 33 35  2  0
 40 35  1  0
 29 23  1  0
 26 25  1  0
 26 27  2  0
 23 28  1  0
 25 28  1  0
 25 24  1  0
 82 19  2  0
 19 24  1  0
 19 11  1  0
 10  9  2  0
 10  5  1  0
  9  8  1  0
  4  5  1  0
  4  3  1  0
 17 18  1  0
 17 16  1  0
 18 20  1  0
 11 12  1  0
 11 22  1  0
  5  6  2  0
 12 13  1  0
 22  1  1  0
  1  2  2  0
  1  3  1  0
 16 15  1  0
  8  7  2  0
 20 13  1  0
 20 14  1  0
 13 21  2  0
  6  7  1  0
 15 14  1  0
 29 68  1  0
 29 69  1  0
 29 70  1  0
 11 51  1  1
 33 74  1  0
 12 52  1  0
 12 53  1  0
 14 54  1  0
 14 55  1  0
 15 56  1  0
 15 57  1  0
 16 58  1  0
 16 59  1  0
 17 60  1  0
 17 61  1  0
 28 66  1  0
 28 67  1  0
 40 80  1  0
 41 81  1  0
 35 75  1  0
 30 72  1  0
 31 73  1  0
 18 62  1  0
 18 63  1  0
  3 42  1  0
  3 43  1  0
 24 71  1  0
 25 65  1  6
 36 76  1  0
 37 77  1  0
 37 78  1  0
 39 79  1  0
 22 64  1  0
  4 44  1  0
  4 45  1  0
  6 46  1  0
  7 47  1  0
  8 48  1  0
  9 49  1  0
 10 50  1  0
M  END
