
     RDKit          3D

 53 56  0  0  0  0  0  0  0  0999 V2000
    4.2281    1.4572    1.7888 C   0  0  0  0  0  0  0  0  0  0  0  0
    3.3123    2.4349    1.0676 C   0  0  1  0  0  0  0  0  0  0  0  0
    2.0322    2.6606    1.8633 C   0  0  0  0  0  0  0  0  0  0  0  0
    4.0296    3.7565    0.7936 C   0  0  0  0  0  0  0  0  0  0  0  0
    2.8602    1.7854   -0.5875 S   0  0  1  0  0  0  0  0  0  0  0  0
    1.7801    2.6318   -1.1047 O   0  0  0  0  0  0  0  0  0  0  0  0
    4.0602    1.6602   -1.4086 O   0  0  0  0  0  0  0  0  0  0  0  0
    2.1412    0.1693   -0.3267 C   0  0  0  0  0  0  0  0  0  0  0  0
    0.7731    0.1049   -0.2532 C   0  0  0  0  0  0  0  0  0  0  0  0
    0.1159   -1.1191   -0.0715 C   0  0  0  0  0  0  0  0  0  0  0  0
   -1.3070   -1.2840    0.0274 C   0  0  0  0  0  0  0  0  0  0  0  0
   -2.1229   -0.2177   -0.0964 N   0  0  0  0  0  0  0  0  0  0  0  0
   -3.5231   -0.1945    0.0101 C   0  0  0  0  0  0  0  0  0  0  0  0
   -4.2029   -0.9192    1.0044 C   0  0  0  0  0  0  0  0  0  0  0  0
   -5.5749   -0.8379    1.1232 C   0  0  0  0  0  0  0  0  0  0  0  0
   -6.2729   -0.0120    0.2487 C   0  0  0  0  0  0  0  0  0  0  0  0
   -7.9684    0.3097    0.1478 S   0  0  0  0  0  0  0  0  0  0  0  0
   -7.6429    1.3864   -1.1731 C   0  0  0  0  0  0  0  0  0  0  0  0
   -6.4138    1.5136   -1.5232 N   0  0  0  0  0  0  0  0  0  0  0  0
   -5.6032    0.7307   -0.7337 C   0  0  0  0  0  0  0  0  0  0  0  0
   -4.2189    0.6308   -0.8568 C   0  0  0  0  0  0  0  0  0  0  0  0
   -1.8300   -2.4751    0.2350 N   0  0  0  0  0  0  0  0  0  0  0  0
   -0.9908   -3.5123    0.3285 C   0  0  0  0  0  0  0  0  0  0  0  0
    0.3100   -3.5085    0.2370 N   0  0  0  0  0  0  0  0  0  0  0  0
    0.8859   -2.2964    0.0362 C   0  0  0  0  0  0  0  0  0  0  0  0
    2.2851   -2.2248   -0.0586 C   0  0  0  0  0  0  0  0  0  0  0  0
    2.9243   -1.0172   -0.2423 C   0  0  0  0  0  0  0  0  0  0  0  0
    4.2374   -0.8778   -0.3383 O   0  0  0  0  0  0  0  0  0  0  0  0
    5.0798   -2.0172   -0.2254 C   0  0  0  0  0  0  0  0  0  0  0  0
    6.5064   -1.5710   -0.4030 C   0  0  0  0  0  0  0  0  0  0  0  0
    6.8852   -0.7576    0.6798 O   0  0  0  0  0  0  0  0  0  0  0  0
    4.5433    1.9263    2.7222 H   0  0  0  0  0  0  0  0  0  0  0  0
    3.7114    0.5353    2.0549 H   0  0  0  0  0  0  0  0  0  0  0  0
    5.1203    1.2049    1.2207 H   0  0  0  0  0  0  0  0  0  0  0  0
    2.3035    3.0743    2.8355 H   0  0  0  0  0  0  0  0  0  0  0  0
    1.3590    3.3647    1.3776 H   0  0  0  0  0  0  0  0  0  0  0  0
    1.4953    1.7299    2.0502 H   0  0  0  0  0  0  0  0  0  0  0  0
    4.9616    3.6111    0.2491 H   0  0  0  0  0  0  0  0  0  0  0  0
    3.4046    4.4595    0.2433 H   0  0  0  0  0  0  0  0  0  0  0  0
    4.2772    4.2142    1.7519 H   0  0  0  0  0  0  0  0  0  0  0  0
    0.2131    1.0273   -0.3307 H   0  0  0  0  0  0  0  0  0  0  0  0
   -1.7171    0.6350   -0.4456 H   0  0  0  0  0  0  0  0  0  0  0  0
   -3.6508   -1.5381    1.6944 H   0  0  0  0  0  0  0  0  0  0  0  0
   -6.0856   -1.3984    1.8943 H   0  0  0  0  0  0  0  0  0  0  0  0
   -8.4602    1.9086   -1.6524 H   0  0  0  0  0  0  0  0  0  0  0  0
   -3.7044    1.1945   -1.6254 H   0  0  0  0  0  0  0  0  0  0  0  0
   -1.4640   -4.4745    0.4960 H   0  0  0  0  0  0  0  0  0  0  0  0
    2.8390   -3.1498    0.0183 H   0  0  0  0  0  0  0  0  0  0  0  0
    4.9410   -2.4983    0.7486 H   0  0  0  0  0  0  0  0  0  0  0  0
    4.8409   -2.7488   -1.0034 H   0  0  0  0  0  0  0  0  0  0  0  0
    7.1168   -2.4805   -0.4674 H   0  0  0  0  0  0  0  0  0  0  0  0
    6.6036   -1.0525   -1.3645 H   0  0  0  0  0  0  0  0  0  0  0  0
    7.7672   -0.4177    0.5051 H   0  0  0  0  0  0  0  0  0  0  0  0
 30 31  1  0
 30 29  1  0
 29 28  1  0
 28 27  1  0
 26 27  1  0
 26 25  2  0
 27  8  2  0
  7  5  2  0
 24 25  1  0
 24 23  2  0
 25 10  1  0
  2  1  1  1
  5  8  1  1
  8  9  1  0
  5  2  1  0
  5  6  2  0
 23 22  1  0
  2  4  1  0
  2  3  1  0
 10  9  2  0
 10 11  1  0
 22 11  2  0
 11 12  1  0
 12 13  1  0
 14 13  2  0
 14 15  1  0
 13 21  1  0
 15 16  2  0
 21 20  2  0
 16 20  1  0
 16 17  1  0
 20 19  1  0
 17 18  1  0
 19 18  2  0
  1 32  1  0
  1 33  1  0
  1 34  1  0
  3 35  1  0
  3 36  1  0
  3 37  1  0
  4 38  1  0
  4 39  1  0
  4 40  1  0
  9 41  1  0
 12 42  1  0
 14 43  1  0
 15 44  1  0
 18 45  1  0
 21 46  1  0
 23 47  1  0
 26 48  1  0
 29 49  1  0
 29 50  1  0
 30 51  1  0
 30 52  1  0
 31 53  1  0
M  END
