
     RDKit          3D

 45 47  0  0  0  0  0  0  0  0999 V2000
   -3.1373   -1.1348    0.3216 S   0  0  0  0  0  0  0  0  0  0  0  0
   -8.3613   -1.5558    0.5386 C   0  0  0  0  0  0  0  0  0  0  0  0
   -2.3809    1.3656   -0.1803 N   0  0  0  0  0  0  0  0  0  0  0  0
    3.1511   -0.4590    0.9293 O   0  0  0  0  0  0  0  0  0  0  0  0
   -7.2101   -0.5618    0.4802 C   0  0  0  0  0  0  0  0  0  0  0  0
   -0.7081   -0.3295   -0.0279 N   0  0  0  0  0  0  0  0  0  0  0  0
    5.4781    0.7883    1.8436 O   0  0  0  0  0  0  0  0  0  0  0  0
    1.5209    0.5546   -0.3733 N   0  0  0  0  0  0  0  0  0  0  0  0
    3.8555   -3.0716   -0.4714 O   0  0  0  0  0  0  0  0  0  0  0  0
   -4.7165   -0.2416    0.3322 C   0  0  0  0  0  0  0  0  0  0  0  0
    1.0160    2.7040   -0.6987 N   0  0  0  0  0  0  0  0  0  0  0  0
    2.5156   -1.6099   -2.3472 O   0  0  0  0  0  0  0  0  0  0  0  0
   -1.9529    0.1238    0.0018 C   0  0  0  0  0  0  0  0  0  0  0  0
   -1.4914    2.3331   -0.4315 C   0  0  0  0  0  0  0  0  0  0  0  0
   -0.1309    1.9814   -0.4847 C   0  0  0  0  0  0  0  0  0  0  0  0
    0.1621    0.6433   -0.2743 C   0  0  0  0  0  0  0  0  0  0  0  0
    1.9696    1.8275   -0.6217 C   0  0  0  0  0  0  0  0  0  0  0  0
    2.3137   -0.6315   -0.1792 C   0  0  1  0  0  0  0  0  0  0  0  0
    3.2362   -0.9598   -1.3519 C   0  0  1  0  0  0  0  0  0  0  0  0
    4.3302   -1.7642   -0.6512 C   0  0  1  0  0  0  0  0  0  0  0  0
    4.4515   -0.9970    0.6686 C   0  0  1  0  0  0  0  0  0  0  0  0
    5.4897    0.1049    0.6161 C   0  0  0  0  0  0  0  0  0  0  0  0
   -8.3632   -2.2065   -0.3374 H   0  0  0  0  0  0  0  0  0  0  0  0
   -8.2885   -2.1912    1.4228 H   0  0  0  0  0  0  0  0  0  0  0  0
   -9.3250   -1.0471    0.5753 H   0  0  0  0  0  0  0  0  0  0  0  0
   -7.3220    0.0819   -0.3973 H   0  0  0  0  0  0  0  0  0  0  0  0
   -7.2485    0.0993    1.3509 H   0  0  0  0  0  0  0  0  0  0  0  0
    6.1361    1.4879    1.8029 H   0  0  0  0  0  0  0  0  0  0  0  0
   -5.7274   -1.8739    1.3216 H   0  0  0  0  0  0  0  0  0  0  0  0
   -5.8157   -1.9285   -0.4301 H   0  0  0  0  0  0  0  0  0  0  0  0
    4.5365   -3.5824   -0.0223 H   0  0  0  0  0  0  0  0  0  0  0  0
   -4.7353    0.4462    1.1780 H   0  0  0  0  0  0  0  0  0  0  0  0
   -4.7978    0.3451   -0.5820 H   0  0  0  0  0  0  0  0  0  0  0  0
    3.0668   -1.6823   -3.1325 H   0  0  0  0  0  0  0  0  0  0  0  0
   -2.9088    3.7832   -0.5945 H   0  0  0  0  0  0  0  0  0  0  0  0
   -1.2863    4.3228   -0.8361 H   0  0  0  0  0  0  0  0  0  0  0  0
    3.0206    2.0488   -0.7328 H   0  0  0  0  0  0  0  0  0  0  0  0
    1.5998   -1.4481   -0.0234 H   0  0  0  0  0  0  0  0  0  0  0  0
    3.6936   -0.0331   -1.7247 H   0  0  0  0  0  0  0  0  0  0  0  0
    5.2731   -1.7505   -1.2129 H   0  0  0  0  0  0  0  0  0  0  0  0
    4.7075   -1.6781    1.4874 H   0  0  0  0  0  0  0  0  0  0  0  0
    5.2904    0.7812   -0.2275 H   0  0  0  0  0  0  0  0  0  0  0  0
    6.4619   -0.3645    0.4171 H   0  0  0  0  0  0  0  0  0  0  0  0
   -1.9244    3.5791   -0.6137 N   0  0  0  0  0  0  0  0  0  0  0  0
   -5.8509   -1.2522    0.4292 C   0  0  0  0  0  0  0  0  0  0  0  0
  1 10  1  0
  1 13  1  0
  2  5  1  0
  2 23  1  0
  2 24  1  0
  2 25  1  0
  3 13  2  0
  3 14  1  0
 18  4  1  0
 21  4  1  0
  5 45  1  0
  5 26  1  0
  5 27  1  0
 13  6  1  0
  6 16  2  0
 22  7  1  0
  7 28  1  0
 45 10  1  0
 45 29  1  0
 45 30  1  0
 16  8  1  0
  8 17  1  0
  8 18  1  0
 20  9  1  0
  9 31  1  0
 10 32  1  0
 10 33  1  0
 15 11  1  0
 11 17  2  0
 19 12  1  0
 12 34  1  0
 44 14  1  0
 44 35  1  0
 44 36  1  0
 14 15  2  0
 15 16  1  0
 17 37  1  0
 19 18  1  0
 18 38  1  1
 20 19  1  0
 19 39  1  6
 20 21  1  0
 20 40  1  6
 22 21  1  0
 21 41  1  1
 22 42  1  0
 22 43  1  0
M  END
