
     RDKit          3D

 45 46  0  0  0  0  0  0  0  0999 V2000
    5.6685   -3.5019   -0.1350 N   0  0  0  0  0  0  0  0  0  0  0  0
    5.0081   -2.5565   -0.1102 C   0  0  0  0  0  0  0  0  0  0  0  0
    4.1917   -1.4062   -0.0809 C   0  0  0  0  0  0  0  0  0  0  0  0
    4.7202   -0.1404   -0.0392 N   0  0  0  0  0  0  0  0  0  0  0  0
    3.7039    0.7605   -0.0179 C   0  0  0  0  0  0  0  0  0  0  0  0
    3.7642    2.1639    0.0246 C   0  0  0  0  0  0  0  0  0  0  0  0
    2.5415    2.7950    0.0320 C   0  0  0  0  0  0  0  0  0  0  0  0
    1.3064    2.1107    0.0020 C   0  0  0  0  0  0  0  0  0  0  0  0
    2.8210   -1.3394   -0.0866 C   0  0  0  0  0  0  0  0  0  0  0  0
    2.4954    0.0384   -0.0464 C   0  0  0  0  0  0  0  0  0  0  0  0
    1.2679    0.7331   -0.0356 C   0  0  0  0  0  0  0  0  0  0  0  0
    0.1634   -0.0277   -0.0643 O   0  0  0  0  0  0  0  0  0  0  0  0
   -1.0963    0.6174   -0.0536 C   0  0  0  0  0  0  0  0  0  0  0  0
   -2.1805   -0.4464   -0.0341 C   0  0  1  0  0  0  0  0  0  0  0  0
   -2.0885   -1.2540    1.1145 O   0  0  0  0  0  0  0  0  0  0  0  0
   -3.5390    0.2327   -0.1829 C   0  0  0  0  0  0  0  0  0  0  0  0
   -4.6142   -0.7333   -0.1324 N   0  0  0  0  0  0  0  0  0  0  0  0
   -5.9816   -0.2016   -0.1614 C   0  0  1  0  0  0  0  0  0  0  0  0
   -6.2626    0.6656   -1.3957 C   0  0  0  0  0  0  0  0  0  0  0  0
   -6.9173   -1.4087   -0.1756 C   0  0  0  0  0  0  0  0  0  0  0  0
   -6.2451    0.6102    1.1072 C   0  0  0  0  0  0  0  0  0  0  0  0
    5.0720    2.8913    0.0621 C   0  0  0  0  0  0  0  0  0  0  0  0
    5.7046    0.0755   -0.0297 H   0  0  0  0  0  0  0  0  0  0  0  0
    2.1490   -2.1814   -0.1147 H   0  0  0  0  0  0  0  0  0  0  0  0
    2.5151    3.8778    0.0625 H   0  0  0  0  0  0  0  0  0  0  0  0
    5.6834    2.6739   -0.8167 H   0  0  0  0  0  0  0  0  0  0  0  0
    4.9158    3.9683    0.0964 H   0  0  0  0  0  0  0  0  0  0  0  0
    5.6618    2.6142    0.9387 H   0  0  0  0  0  0  0  0  0  0  0  0
    0.3999    2.6999    0.0095 H   0  0  0  0  0  0  0  0  0  0  0  0
   -1.1895    1.2622    0.8289 H   0  0  0  0  0  0  0  0  0  0  0  0
   -1.2060    1.2514   -0.9408 H   0  0  0  0  0  0  0  0  0  0  0  0
   -2.0257   -1.1120   -0.8922 H   0  0  0  0  0  0  0  0  0  0  0  0
   -2.5946   -0.8392    1.8206 H   0  0  0  0  0  0  0  0  0  0  0  0
   -3.6617    0.9458    0.6385 H   0  0  0  0  0  0  0  0  0  0  0  0
   -3.5174    0.8312   -1.1052 H   0  0  0  0  0  0  0  0  0  0  0  0
   -4.5066   -1.3770   -0.9094 H   0  0  0  0  0  0  0  0  0  0  0  0
   -6.0927    0.1021   -2.3162 H   0  0  0  0  0  0  0  0  0  0  0  0
   -7.2988    1.0086   -1.4061 H   0  0  0  0  0  0  0  0  0  0  0  0
   -5.6268    1.5523   -1.4237 H   0  0  0  0  0  0  0  0  0  0  0  0
   -6.7643   -2.0339    0.7056 H   0  0  0  0  0  0  0  0  0  0  0  0
   -7.9603   -1.0895   -0.1882 H   0  0  0  0  0  0  0  0  0  0  0  0
   -6.7512   -2.0293   -1.0600 H   0  0  0  0  0  0  0  0  0  0  0  0
   -5.6547    1.5271    1.1446 H   0  0  0  0  0  0  0  0  0  0  0  0
   -7.2948    0.9026    1.1566 H   0  0  0  0  0  0  0  0  0  0  0  0
   -6.0153    0.0224    1.9977 H   0  0  0  0  0  0  0  0  0  0  0  0
  1  2  3  0
  2  3  1  0
  3  4  1  0
  3  9  2  0
  4  5  1  0
  5  6  2  0
  5 10  1  0
  6  7  1  0
  6 22  1  0
  7  8  2  0
  8 11  1  0
  9 10  1  0
 10 11  2  0
 11 12  1  0
 12 13  1  0
 13 14  1  0
 14 15  1  0
 14 16  1  0
 16 17  1  0
 18 17  1  1
 18 19  1  0
 18 20  1  0
 18 21  1  0
  4 23  1  0
  9 24  1  0
  7 25  1  0
 22 26  1  0
 22 27  1  0
 22 28  1  0
  8 29  1  0
 13 30  1  0
 13 31  1  0
 14 32  1  6
 15 33  1  0
 16 34  1  0
 16 35  1  0
 17 36  1  0
 19 37  1  0
 19 38  1  0
 19 39  1  0
 20 40  1  0
 20 41  1  0
 20 42  1  0
 21 43  1  0
 21 44  1  0
 21 45  1  0
M  END
