
     RDKit          3D

 73 75  0  0  0  0  0  0  0  0999 V2000
   -6.5443   -1.6683    1.3041 C   0  0  0  0  0  0  0  0  0  0  0  0
   -5.2963   -1.8632    0.8016 C   0  0  0  0  0  0  0  0  0  0  0  0
   -5.9146   -3.2352    2.6920 C   0  0  0  0  0  0  0  0  0  0  0  0
   -4.6557   -1.1891   -0.3560 C   0  0  0  0  0  0  0  0  0  0  0  0
   -2.7555    0.1336   -0.7786 C   0  0  0  0  0  0  0  0  0  0  0  0
   -0.8729    1.7013   -0.8321 C   0  0  2  0  0  0  0  0  0  0  0  0
    0.6113    1.4481   -0.5702 C   0  0  2  0  0  0  0  0  0  0  0  0
    1.0764    0.1295   -1.1822 C   0  0  0  0  0  0  0  0  0  0  0  0
    2.5923   -0.0571   -1.1704 C   0  0  2  0  0  0  0  0  0  0  0  0
   -6.8886   -2.4482    2.3689 N   0  0  0  0  0  0  0  0  0  0  0  0
    4.8448   -0.0783    1.9011 C   0  0  1  0  0  0  0  0  0  0  0  0
    5.0642   -2.3686   -0.9907 C   0  0  0  0  0  0  0  0  0  0  0  0
    6.4437   -2.5112   -0.9101 C   0  0  0  0  0  0  0  0  0  0  0  0
    7.2657   -1.8213   -1.7907 C   0  0  0  0  0  0  0  0  0  0  0  0
    6.6990   -0.9928   -2.7516 C   0  0  0  0  0  0  0  0  0  0  0  0
    5.3213   -0.8478   -2.8212 C   0  0  0  0  0  0  0  0  0  0  0  0
    4.4855   -1.5302   -1.9403 C   0  0  0  0  0  0  0  0  0  0  0  0
    3.0012   -1.3057   -1.9689 C   0  0  0  0  0  0  0  0  0  0  0  0
    3.1079   -0.1381    0.1914 N   0  0  0  0  0  0  0  0  0  0  0  0
    4.8064    1.3453   -0.0476 O   0  0  0  0  0  0  0  0  0  0  0  0
    6.2023    0.3476    2.1436 N   0  0  0  0  0  0  0  0  0  0  0  0
    3.9125    0.2881    3.0751 C   0  0  1  0  0  0  0  0  0  0  0  0
    4.4101   -0.3309    4.3760 C   0  0  0  0  0  0  0  0  0  0  0  0
    3.7256    1.7955    3.2284 C   0  0  0  0  0  0  0  0  0  0  0  0
    0.8086    1.4960    0.8284 O   0  0  0  0  0  0  0  0  0  0  0  0
   -1.3046    3.1039   -0.3686 C   0  0  0  0  0  0  0  0  0  0  0  0
   -2.7632    3.3491   -0.6299 C   0  0  0  0  0  0  0  0  0  0  0  0
   -3.1955    3.8269   -1.8647 C   0  0  0  0  0  0  0  0  0  0  0  0
   -4.5471    3.9904   -2.1318 C   0  0  0  0  0  0  0  0  0  0  0  0
   -5.4924    3.6710   -1.1652 C   0  0  0  0  0  0  0  0  0  0  0  0
   -5.0744    3.1978    0.0710 C   0  0  0  0  0  0  0  0  0  0  0  0
   -3.7200    3.0433    0.3353 C   0  0  0  0  0  0  0  0  0  0  0  0
   -1.6721    0.6788   -0.1975 N   0  0  0  0  0  0  0  0  0  0  0  0
   -3.0632    0.2260   -1.9470 O   0  0  0  0  0  0  0  0  0  0  0  0
   -3.4655   -0.5692    0.1200 O   0  0  0  0  0  0  0  0  0  0  0  0
   -4.5086   -3.0887    1.7166 S   0  0  0  0  0  0  0  0  0  0  0  0
   -7.2515   -0.9505    0.9107 H   0  0  0  0  0  0  0  0  0  0  0  0
   -5.9478   -3.9371    3.5138 H   0  0  0  0  0  0  0  0  0  0  0  0
   -4.4253   -1.9073   -1.1465 H   0  0  0  0  0  0  0  0  0  0  0  0
   -5.3480   -0.4499   -0.7657 H   0  0  0  0  0  0  0  0  0  0  0  0
   -1.0311    1.6298   -1.9092 H   0  0  0  0  0  0  0  0  0  0  0  0
    1.1647    2.2624   -1.0641 H   0  0  0  0  0  0  0  0  0  0  0  0
    0.5900   -0.7122   -0.6791 H   0  0  0  0  0  0  0  0  0  0  0  0
    0.7502    0.0997   -2.2253 H   0  0  0  0  0  0  0  0  0  0  0  0
    3.0564    0.8158   -1.6326 H   0  0  0  0  0  0  0  0  0  0  0  0
    4.8530   -1.1722    1.8320 H   0  0  0  0  0  0  0  0  0  0  0  0
    4.4270   -2.9186   -0.3072 H   0  0  0  0  0  0  0  0  0  0  0  0
    6.8754   -3.1647   -0.1626 H   0  0  0  0  0  0  0  0  0  0  0  0
    8.3408   -1.9337   -1.7336 H   0  0  0  0  0  0  0  0  0  0  0  0
    7.3326   -0.4574   -3.4473 H   0  0  0  0  0  0  0  0  0  0  0  0
    4.8869   -0.1932   -3.5683 H   0  0  0  0  0  0  0  0  0  0  0  0
    2.4767   -2.1770   -1.5648 H   0  0  0  0  0  0  0  0  0  0  0  0
    2.6550   -1.1786   -2.9973 H   0  0  0  0  0  0  0  0  0  0  0  0
    2.8509   -0.9791    0.6921 H   0  0  0  0  0  0  0  0  0  0  0  0
    6.8094   -0.0309    1.4271 H   0  0  0  0  0  0  0  0  0  0  0  0
    6.2760    1.3537    2.0549 H   0  0  0  0  0  0  0  0  0  0  0  0
    2.9321   -0.1503    2.8569 H   0  0  0  0  0  0  0  0  0  0  0  0
    5.3621    0.1044    4.6772 H   0  0  0  0  0  0  0  0  0  0  0  0
    3.6905   -0.1608    5.1780 H   0  0  0  0  0  0  0  0  0  0  0  0
    4.5503   -1.4086    4.2768 H   0  0  0  0  0  0  0  0  0  0  0  0
    3.3355    2.2677    2.3246 H   0  0  0  0  0  0  0  0  0  0  0  0
    3.0174    2.0066    4.0305 H   0  0  0  0  0  0  0  0  0  0  0  0
    4.6626    2.2933    3.4863 H   0  0  0  0  0  0  0  0  0  0  0  0
    1.6316    1.0299    1.0208 H   0  0  0  0  0  0  0  0  0  0  0  0
   -1.0922    3.2155    0.6970 H   0  0  0  0  0  0  0  0  0  0  0  0
   -0.6949    3.8423   -0.8951 H   0  0  0  0  0  0  0  0  0  0  0  0
   -2.4651    4.0708   -2.6281 H   0  0  0  0  0  0  0  0  0  0  0  0
   -4.8645    4.3669   -3.0959 H   0  0  0  0  0  0  0  0  0  0  0  0
   -6.5473    3.7948   -1.3740 H   0  0  0  0  0  0  0  0  0  0  0  0
   -5.8030    2.9515    0.8329 H   0  0  0  0  0  0  0  0  0  0  0  0
   -3.4032    2.6790    1.3055 H   0  0  0  0  0  0  0  0  0  0  0  0
   -1.5576    0.5628    0.7984 H   0  0  0  0  0  0  0  0  0  0  0  0
    4.2768    0.4473    0.5784 C   0  0  0  0  0  0  0  0  0  0  0  0
 10  1  1  0
 10  3  2  0
  1  2  2  0
  3 36  1  0
  2 36  1  0
  2  4  1  0
  4 35  1  0
 35  5  1  0
  5 34  2  0
  5 33  1  0
 29 30  1  0
 29 28  2  0
 30 31  2  0
 28 27  1  0
 33  6  1  0
 31 32  1  0
 27 32  2  0
 27 26  1  0
  6 26  1  0
  6  7  1  0
 12 13  2  0
 12 17  1  0
  8  7  1  0
  8  9  1  0
 13 14  1  0
 25  7  1  0
 18  9  1  0
 18 17  1  0
  9 19  1  0
 17 16  2  0
 14 15  2  0
 20 73  2  0
 16 15  1  0
 19 73  1  0
 73 11  1  0
 23 22  1  0
 11 22  1  0
 11 21  1  0
 22 24  1  0
  1 37  1  0
  3 38  1  0
  4 39  1  0
  4 40  1  0
  6 41  1  6
  7 42  1  6
  8 43  1  0
  8 44  1  0
  9 45  1  6
 11 46  1  6
 12 47  1  0
 13 48  1  0
 14 49  1  0
 15 50  1  0
 16 51  1  0
 18 52  1  0
 18 53  1  0
 19 54  1  0
 21 55  1  0
 21 56  1  0
 22 57  1  6
 23 58  1  0
 23 59  1  0
 23 60  1  0
 24 61  1  0
 24 62  1  0
 24 63  1  0
 25 64  1  0
 26 65  1  0
 26 66  1  0
 28 67  1  0
 29 68  1  0
 30 69  1  0
 31 70  1  0
 32 71  1  0
 33 72  1  0
M  END
