
     RDKit          3D

 42 44  0  0  0  0  0  0  0  0999 V2000
   -0.4412    0.3837   -1.4435 C   0  0  0  0  0  0  0  0  0  0  0  0
    3.7941   -2.1277   -0.8343 C   0  0  0  0  0  0  0  0  0  0  0  0
    5.0245   -1.5411   -0.5463 C   0  0  0  0  0  0  0  0  0  0  0  0
    6.2216   -2.3092   -0.6273 C   0  0  0  0  0  0  0  0  0  0  0  0
    5.0873   -0.1996   -0.1771 C   0  0  0  0  0  0  0  0  0  0  0  0
    3.9875    1.9931    0.3176 C   0  0  1  0  0  0  0  0  0  0  0  0
    0.3535   -1.3799    2.9349 C   0  0  0  0  0  0  0  0  0  0  0  0
    0.7492   -0.6297    1.8006 O   0  0  0  0  0  0  0  0  0  0  0  0
   -0.1144   -0.4990    0.7869 C   0  0  0  0  0  0  0  0  0  0  0  0
   -1.4078   -1.0032    0.7581 C   0  0  0  0  0  0  0  0  0  0  0  0
   -2.2225   -0.8164   -0.3593 C   0  0  0  0  0  0  0  0  0  0  0  0
   -3.6333   -1.3347   -0.3384 C   0  0  0  0  0  0  0  0  0  0  0  0
   -4.5437   -0.4372    0.5009 C   0  0  1  0  0  0  0  0  0  0  0  0
   -4.6154    1.2640   -0.1374 S   0  0  0  0  0  0  0  0  0  0  0  0
   -6.3753    1.2351   -0.2632 C   0  0  0  0  0  0  0  0  0  0  0  0
   -7.0435    2.1568   -0.6424 O   0  0  0  0  0  0  0  0  0  0  0  0
   -6.8566    0.0095    0.1293 N   0  0  0  0  0  0  0  0  0  0  0  0
   -5.9716   -0.9506    0.5308 C   0  0  0  0  0  0  0  0  0  0  0  0
   -6.2766   -2.0670    0.8644 O   0  0  0  0  0  0  0  0  0  0  0  0
   -1.7374   -0.1199   -1.4560 C   0  0  0  0  0  0  0  0  0  0  0  0
    0.3541    0.1973   -0.3353 C   0  0  0  0  0  0  0  0  0  0  0  0
    1.6145    0.7484   -0.3000 O   0  0  0  0  0  0  0  0  0  0  0  0
    2.6948   -0.0449   -0.3792 C   0  0  0  0  0  0  0  0  0  0  0  0
    2.6352   -1.3839   -0.7527 C   0  0  0  0  0  0  0  0  0  0  0  0
    7.1895   -2.9315   -0.6905 N   0  0  0  0  0  0  0  0  0  0  0  0
    3.9301    0.5511   -0.0910 C   0  0  0  0  0  0  0  0  0  0  0  0
    3.2820    2.2283    1.4293 F   0  0  0  0  0  0  0  0  0  0  0  0
    5.2406    2.3854    0.5655 F   0  0  0  0  0  0  0  0  0  0  0  0
    3.5084    2.8046   -0.6322 F   0  0  0  0  0  0  0  0  0  0  0  0
   -0.0503    0.9248   -2.2957 H   0  0  0  0  0  0  0  0  0  0  0  0
    3.7408   -3.1676   -1.1255 H   0  0  0  0  0  0  0  0  0  0  0  0
    6.0490    0.2410    0.0432 H   0  0  0  0  0  0  0  0  0  0  0  0
   -0.4952   -0.9216    3.4483 H   0  0  0  0  0  0  0  0  0  0  0  0
    0.0973   -2.4084    2.6704 H   0  0  0  0  0  0  0  0  0  0  0  0
    1.2068   -1.3902    3.6072 H   0  0  0  0  0  0  0  0  0  0  0  0
   -1.8005   -1.5498    1.6066 H   0  0  0  0  0  0  0  0  0  0  0  0
   -4.0260   -1.4079   -1.3538 H   0  0  0  0  0  0  0  0  0  0  0  0
   -3.6596   -2.3368    0.0942 H   0  0  0  0  0  0  0  0  0  0  0  0
   -4.1844   -0.4008    1.5326 H   0  0  0  0  0  0  0  0  0  0  0  0
   -7.8527   -0.1763    0.0974 H   0  0  0  0  0  0  0  0  0  0  0  0
   -2.3624    0.0278   -2.3270 H   0  0  0  0  0  0  0  0  0  0  0  0
    1.6889   -1.8509   -0.9890 H   0  0  0  0  0  0  0  0  0  0  0  0
 20  1  2  0
  1 21  1  0
  1 30  1  0
  3  2  2  0
 24  2  1  0
  2 31  1  0
  5  3  1  0
  3  4  1  0
  4 25  3  0
 26  5  2  0
  5 32  1  0
  6 27  1  1
 29  6  1  0
  6 26  1  0
  6 28  1  0
  8  7  1  0
  7 33  1  0
  7 34  1  0
  7 35  1  0
  9  8  1  0
 21  9  2  0
 10  9  1  0
 11 10  2  0
 10 36  1  0
 20 11  1  0
 12 11  1  0
 13 12  1  0
 12 37  1  0
 12 38  1  0
 18 13  1  0
 13 14  1  0
 13 39  1  1
 15 14  1  0
 17 15  1  0
 15 16  2  0
 18 17  1  0
 17 40  1  0
 19 18  2  0
 20 41  1  0
 21 22  1  0
 22 23  1  0
 26 23  1  0
 23 24  2  0
 24 42  1  0
M  END
