
     RDKit          3D

 37 39  0  0  0  0  0  0  0  0999 V2000
   -1.7778    1.4842   -0.4216 N   0  0  0  0  0  0  0  0  0  0  0  0
    0.9045   -2.8866    0.1787 N   0  0  0  0  0  0  0  0  0  0  0  0
    0.5722    0.7674   -0.1255 C   0  0  0  0  0  0  0  0  0  0  0  0
    0.2610   -0.5803   -0.0440 C   0  0  0  0  0  0  0  0  0  0  0  0
    1.2760   -1.5500    0.0873 C   0  0  0  0  0  0  0  0  0  0  0  0
   -0.4720    1.8166   -0.2878 C   0  0  0  0  0  0  0  0  0  0  0  0
   -2.2868    0.2937   -0.3672 C   0  0  0  0  0  0  0  0  0  0  0  0
   -5.1777   -1.1763    0.8106 C   0  0  0  0  0  0  0  0  0  0  0  0
   -4.5091    1.2457   -0.6535 C   0  0  0  0  0  0  0  0  0  0  0  0
    5.1280   -0.0786   -0.5469 F   0  0  0  0  0  0  0  0  0  0  0  0
    4.3311    0.6344    0.2600 C   0  0  1  0  0  0  0  0  0  0  0  0
    4.7773    0.4345    1.5089 F   0  0  0  0  0  0  0  0  0  0  0  0
    4.5322    1.9225   -0.0255 F   0  0  0  0  0  0  0  0  0  0  0  0
    2.8963    0.2293    0.1215 C   0  0  0  0  0  0  0  0  0  0  0  0
    1.9059    1.1713   -0.0444 C   0  0  0  0  0  0  0  0  0  0  0  0
   -0.1387    2.9913   -0.3132 O   0  0  0  0  0  0  0  0  0  0  0  0
   -1.3770   -1.1880   -0.0513 S   0  0  0  0  0  0  0  0  0  0  0  0
    1.9352   -3.7904    0.2765 O   0  0  0  0  0  0  0  0  0  0  0  0
    2.5904   -1.1288    0.1893 C   0  0  0  0  0  0  0  0  0  0  0  0
   -3.5940    0.1111   -0.5370 N   0  0  0  0  0  0  0  0  0  0  0  0
   -5.4142    1.3122    0.5703 C   0  0  0  0  0  0  0  0  0  0  0  0
   -6.1531   -0.0047    0.7817 C   0  0  0  0  0  0  0  0  0  0  0  0
   -4.2906   -1.1645   -0.4274 C   0  0  0  0  0  0  0  0  0  0  0  0
    0.2355   -3.1908   -0.5217 H   0  0  0  0  0  0  0  0  0  0  0  0
   -4.5489   -1.1258    1.7041 H   0  0  0  0  0  0  0  0  0  0  0  0
   -5.7134   -2.1266    0.8479 H   0  0  0  0  0  0  0  0  0  0  0  0
   -3.9350    2.1577   -0.7768 H   0  0  0  0  0  0  0  0  0  0  0  0
   -5.1052    1.0944   -1.5577 H   0  0  0  0  0  0  0  0  0  0  0  0
    2.1291    2.2261   -0.1056 H   0  0  0  0  0  0  0  0  0  0  0  0
    2.3723   -3.8430   -0.5873 H   0  0  0  0  0  0  0  0  0  0  0  0
    3.3756   -1.8611    0.3152 H   0  0  0  0  0  0  0  0  0  0  0  0
   -4.8102    1.5518    1.4501 H   0  0  0  0  0  0  0  0  0  0  0  0
   -6.1211    2.1334    0.4364 H   0  0  0  0  0  0  0  0  0  0  0  0
   -6.8684   -0.1528   -0.0338 H   0  0  0  0  0  0  0  0  0  0  0  0
   -6.7334    0.0281    1.7054 H   0  0  0  0  0  0  0  0  0  0  0  0
   -3.5962   -2.0020   -0.4188 H   0  0  0  0  0  0  0  0  0  0  0  0
   -4.8992   -1.2813   -1.3283 H   0  0  0  0  0  0  0  0  0  0  0  0
 11 13  1  6
 10 11  1  0
 11 12  1  0
 11 14  1  0
 16  6  2  0
 15 14  2  0
 15  3  1  0
 14 19  1  0
  6  3  1  0
  6  1  1  0
  3  4  2  0
  1  7  2  0
 19  5  2  0
  4  5  1  0
  4 17  1  0
  5  2  1  0
  7 20  1  0
  7 17  1  0
 23 20  1  0
 23  8  1  0
 20  9  1  0
  8 22  1  0
  2 18  1  0
  9 21  1  0
 22 21  1  0
  2 24  1  0
  8 25  1  0
  8 26  1  0
  9 27  1  0
  9 28  1  0
 15 29  1  0
 18 30  1  0
 19 31  1  0
 21 32  1  0
 21 33  1  0
 22 34  1  0
 22 35  1  0
 23 36  1  0
 23 37  1  0
M  END
