
     RDKit          3D

 59 60  0  0  0  0  0  0  0  0999 V2000
   -3.1779    0.5241   -1.1989 N   0  0  0  0  0  0  0  0  0  0  0  0
   -8.2525   -3.1416    2.4590 N   0  0  0  0  0  0  0  0  0  0  0  0
   -8.6185   -0.8652    2.9392 N   0  0  0  0  0  0  0  0  0  0  0  0
   -7.0674   -1.4391    1.2250 C   0  0  0  0  0  0  0  0  0  0  0  0
   -7.1227   -0.1767    0.6364 C   0  0  0  0  0  0  0  0  0  0  0  0
   -6.2141    0.1850   -0.3431 C   0  0  0  0  0  0  0  0  0  0  0  0
   -5.2187   -0.7003   -0.7521 C   0  0  0  0  0  0  0  0  0  0  0  0
   -5.1541   -1.9527   -0.1548 C   0  0  0  0  0  0  0  0  0  0  0  0
   -6.0696   -2.3225    0.8202 C   0  0  0  0  0  0  0  0  0  0  0  0
   -4.2179   -0.2967   -1.7973 C   0  0  0  0  0  0  0  0  0  0  0  0
   -2.1171    0.9449   -1.8926 C   0  0  0  0  0  0  0  0  0  0  0  0
   -1.9160    0.6411   -3.0607 O   0  0  0  0  0  0  0  0  0  0  0  0
   -1.1836    1.8902   -1.1449 C   0  0  1  0  0  0  0  0  0  0  0  0
    0.1482    1.7027   -1.6685 N   0  0  0  0  0  0  0  0  0  0  0  0
    1.2570    2.0191   -0.9878 C   0  0  0  0  0  0  0  0  0  0  0  0
    1.2578    2.4289    0.1604 O   0  0  0  0  0  0  0  0  0  0  0  0
    2.5572    1.8315   -1.7796 C   0  0  1  0  0  0  0  0  0  0  0  0
    2.6874    2.9034   -2.8535 C   0  0  0  0  0  0  0  0  0  0  0  0
    2.6410    4.1570   -2.2215 O   0  0  0  0  0  0  0  0  0  0  0  0
    3.7196    1.8902   -0.9187 N   0  0  0  0  0  0  0  0  0  0  0  0
    3.9672    0.6896    0.1923 S   0  0  2  0  0  0  0  0  0  0  0  0
    2.8867   -0.2825    0.0834 O   0  0  0  0  0  0  0  0  0  0  0  0
    4.2657    1.2921    1.4831 O   0  0  0  0  0  0  0  0  0  0  0  0
    5.4684   -0.0931   -0.4114 C   0  0  0  0  0  0  0  0  0  0  0  0
    5.8305   -1.2433    0.4740 C   0  0  0  0  0  0  0  0  0  0  0  0
    5.3247   -2.5143    0.2142 C   0  0  0  0  0  0  0  0  0  0  0  0
    5.6413   -3.5792    1.0452 C   0  0  0  0  0  0  0  0  0  0  0  0
    6.4610   -3.3810    2.1489 C   0  0  0  0  0  0  0  0  0  0  0  0
    6.9646   -2.1145    2.4163 C   0  0  0  0  0  0  0  0  0  0  0  0
    6.6468   -1.0498    1.5851 C   0  0  0  0  0  0  0  0  0  0  0  0
   -1.6734    3.3290   -1.3184 C   0  0  0  0  0  0  0  0  0  0  0  0
   -3.2745    0.7865   -0.2306 H   0  0  0  0  0  0  0  0  0  0  0  0
   -8.0976   -3.7622    1.6818 H   0  0  0  0  0  0  0  0  0  0  0  0
   -9.0195   -3.4213    3.0502 H   0  0  0  0  0  0  0  0  0  0  0  0
   -9.2937   -1.2403    3.5998 H   0  0  0  0  0  0  0  0  0  0  0  0
   -7.8916    0.5190    0.9434 H   0  0  0  0  0  0  0  0  0  0  0  0
   -6.2847    1.1651   -0.7994 H   0  0  0  0  0  0  0  0  0  0  0  0
   -4.3830   -2.6523   -0.4538 H   0  0  0  0  0  0  0  0  0  0  0  0
   -5.9810   -3.3028    1.2703 H   0  0  0  0  0  0  0  0  0  0  0  0
   -4.7128    0.2575   -2.5987 H   0  0  0  0  0  0  0  0  0  0  0  0
   -3.7699   -1.1847   -2.2468 H   0  0  0  0  0  0  0  0  0  0  0  0
   -1.1769    1.6394   -0.0820 H   0  0  0  0  0  0  0  0  0  0  0  0
    0.2180    1.3844   -2.6243 H   0  0  0  0  0  0  0  0  0  0  0  0
    2.5386    0.8675   -2.2938 H   0  0  0  0  0  0  0  0  0  0  0  0
    3.6287    2.7427   -3.3900 H   0  0  0  0  0  0  0  0  0  0  0  0
    1.8762    2.7766   -3.5794 H   0  0  0  0  0  0  0  0  0  0  0  0
    2.8341    4.8370   -2.8735 H   0  0  0  0  0  0  0  0  0  0  0  0
    3.9039    2.8076   -0.5274 H   0  0  0  0  0  0  0  0  0  0  0  0
    5.2651   -0.4048   -1.4367 H   0  0  0  0  0  0  0  0  0  0  0  0
    6.2359    0.6814   -0.4309 H   0  0  0  0  0  0  0  0  0  0  0  0
    4.6877   -2.6747   -0.6467 H   0  0  0  0  0  0  0  0  0  0  0  0
    5.2476   -4.5643    0.8312 H   0  0  0  0  0  0  0  0  0  0  0  0
    6.7099   -4.2120    2.7962 H   0  0  0  0  0  0  0  0  0  0  0  0
    7.6055   -1.9553    3.2736 H   0  0  0  0  0  0  0  0  0  0  0  0
    7.0446   -0.0649    1.7963 H   0  0  0  0  0  0  0  0  0  0  0  0
   -1.0183    4.0142   -0.7828 H   0  0  0  0  0  0  0  0  0  0  0  0
   -1.6799    3.6100   -2.3718 H   0  0  0  0  0  0  0  0  0  0  0  0
   -2.6819    3.4502   -0.9232 H   0  0  0  0  0  0  0  0  0  0  0  0
   -8.0622   -1.8026    2.2726 C   0  0  0  0  0  0  0  0  0  0  0  0
  1 10  1  0
  1 11  1  0
  1 32  1  0
  2 59  1  0
  2 33  1  0
  2 34  1  0
 59  3  2  0
 59  4  1  0
  3 35  1  0
  4  5  2  0
  4  9  1  0
  5  6  1  0
  5 36  1  0
  6  7  2  0
  6 37  1  0
  7  8  1  0
  7 10  1  0
  8  9  2  0
  8 38  1  0
  9 39  1  0
 10 40  1  0
 10 41  1  0
 11 12  2  0
 11 13  1  0
 13 14  1  0
 13 31  1  0
 13 42  1  1
 14 15  1  0
 14 43  1  0
 15 16  2  0
 15 17  1  0
 17 18  1  0
 17 20  1  0
 17 44  1  6
 18 19  1  0
 18 45  1  0
 18 46  1  0
 19 47  1  0
 21 20  1  6
 20 48  1  0
 21 22  2  0
 21 23  2  0
 21 24  1  0
 24 25  1  0
 24 49  1  0
 24 50  1  0
 25 26  2  0
 25 30  1  0
 26 27  1  0
 26 51  1  0
 27 28  2  0
 27 52  1  0
 28 29  1  0
 28 53  1  0
 29 30  2  0
 29 54  1  0
 30 55  1  0
 31 56  1  0
 31 57  1  0
 31 58  1  0
M  END
