
     RDKit          3D

 57 61  0  0  0  0  0  0  0  0999 V2000
    2.3606    1.7233    0.3281 C   0  0  0  0  0  0  0  0  0  0  0  0
    1.0663   -0.3079    0.6536 C   0  0  0  0  0  0  0  0  0  0  0  0
    0.8897    3.5985   -0.4690 N   0  0  0  0  0  0  0  0  0  0  0  0
   -0.1223    0.2837    0.2478 C   0  0  0  0  0  0  0  0  0  0  0  0
    1.1714    2.3230   -0.0596 C   0  0  0  0  0  0  0  0  0  0  0  0
    4.7899    0.1176   -0.8414 C   0  0  0  0  0  0  0  0  0  0  0  0
   -2.5449   -3.7080   -0.7591 N   0  0  0  0  0  0  0  0  0  0  0  0
   -0.5431   -2.7371   -0.8366 C   0  0  0  0  0  0  0  0  0  0  0  0
   -1.3805   -0.4734    0.2145 C   0  0  0  0  0  0  0  0  0  0  0  0
    1.8282    4.6891   -0.5836 C   0  0  0  0  0  0  0  0  0  0  0  0
    2.2874    0.3841    0.6803 C   0  0  0  0  0  0  0  0  0  0  0  0
   -2.6959   -2.4622   -0.2324 C   0  0  0  0  0  0  0  0  0  0  0  0
   -0.0547    1.6389   -0.1140 C   0  0  0  0  0  0  0  0  0  0  0  0
   -3.7424   -0.5823    0.6757 N   0  0  0  0  0  0  0  0  0  0  0  0
   -6.8461    1.5846    0.4682 C   0  0  0  0  0  0  0  0  0  0  0  0
   -6.9937    2.9040    0.4550 C   0  0  0  0  0  0  0  0  0  0  0  0
    6.3934   -1.9086    0.3071 C   0  0  0  0  0  0  0  0  0  0  0  0
   -1.4613   -1.8216   -0.2612 C   0  0  0  0  0  0  0  0  0  0  0  0
   -4.9181    0.1537    1.1298 C   0  0  0  0  0  0  0  0  0  0  0  0
    6.5635   -1.5353   -1.0428 O   0  0  0  0  0  0  0  0  0  0  0  0
   -2.5412    0.0773    0.6538 C   0  0  0  0  0  0  0  0  0  0  0  0
   -1.2538   -3.8792   -1.1241 C   0  0  0  0  0  0  0  0  0  0  0  0
   -3.9154   -1.8783    0.2240 C   0  0  0  0  0  0  0  0  0  0  0  0
    4.6467   -0.2251    0.5650 N   0  0  0  0  0  0  0  0  0  0  0  0
    5.8779   -0.7460    1.1364 C   0  0  0  0  0  0  0  0  0  0  0  0
   -0.4349    3.6258   -0.7458 C   0  0  0  0  0  0  0  0  0  0  0  0
   -5.6336    0.8593   -0.0214 C   0  0  0  0  0  0  0  0  0  0  0  0
    3.4805   -0.3241    1.2386 C   0  0  0  0  0  0  0  0  0  0  0  0
    5.3566   -1.0729   -1.6026 C   0  0  0  0  0  0  0  0  0  0  0  0
    3.3763   -0.9271    2.2997 O   0  0  0  0  0  0  0  0  0  0  0  0
   -1.0396    2.4868   -0.5520 N   0  0  0  0  0  0  0  0  0  0  0  0
    3.2918    2.2749    0.3685 H   0  0  0  0  0  0  0  0  0  0  0  0
    1.0531   -1.3406    0.9774 H   0  0  0  0  0  0  0  0  0  0  0  0
    5.4570    0.9795   -0.9377 H   0  0  0  0  0  0  0  0  0  0  0  0
   -3.2796   -4.3883   -0.8663 H   0  0  0  0  0  0  0  0  0  0  0  0
    0.5060   -2.5858   -1.0309 H   0  0  0  0  0  0  0  0  0  0  0  0
    2.6742    4.3955   -1.2024 H   0  0  0  0  0  0  0  0  0  0  0  0
    1.3339    5.5359   -1.0512 H   0  0  0  0  0  0  0  0  0  0  0  0
    2.1930    4.9914    0.3968 H   0  0  0  0  0  0  0  0  0  0  0  0
   -7.6432    0.9661    0.8737 H   0  0  0  0  0  0  0  0  0  0  0  0
   -7.8903    3.3781    0.8321 H   0  0  0  0  0  0  0  0  0  0  0  0
   -6.2233    3.5589    0.0640 H   0  0  0  0  0  0  0  0  0  0  0  0
    5.6977   -2.7553    0.3910 H   0  0  0  0  0  0  0  0  0  0  0  0
    7.3655   -2.2310    0.6823 H   0  0  0  0  0  0  0  0  0  0  0  0
   -5.5903   -0.5369    1.6357 H   0  0  0  0  0  0  0  0  0  0  0  0
   -4.5895    0.8839    1.8687 H   0  0  0  0  0  0  0  0  0  0  0  0
   -2.5775    1.0893    1.0287 H   0  0  0  0  0  0  0  0  0  0  0  0
   -0.9215   -4.8034   -1.5677 H   0  0  0  0  0  0  0  0  0  0  0  0
    5.7113   -1.0604    2.1632 H   0  0  0  0  0  0  0  0  0  0  0  0
    6.6197    0.0589    1.1472 H   0  0  0  0  0  0  0  0  0  0  0  0
   -0.9110    4.5300   -1.0976 H   0  0  0  0  0  0  0  0  0  0  0  0
   -5.9244    0.1133   -0.7662 H   0  0  0  0  0  0  0  0  0  0  0  0
   -4.9460    1.5557   -0.5083 H   0  0  0  0  0  0  0  0  0  0  0  0
    4.6062   -1.8762   -1.6225 H   0  0  0  0  0  0  0  0  0  0  0  0
    5.5633   -0.7806   -2.6330 H   0  0  0  0  0  0  0  0  0  0  0  0
   -5.0119   -2.4349    0.2254 O   0  0  0  0  0  0  0  0  0  0  0  0
    3.8313    0.3856   -1.2774 H   0  0  0  0  0  0  0  0  0  0  0  0
 22  7  1  0
 22  8  2  0
  7 12  1  0
  8 18  1  0
 12 18  2  0
 12 23  1  0
 18  9  1  0
 26 31  2  0
 26  3  1  0
 31 13  1  0
 56 23  2  0
 23 14  1  0
  3 10  1  0
  3  5  1  0
 13  5  1  0
 13  4  2  0
  9  4  1  0
  9 21  2  0
  5  1  2  0
  4  2  1  0
 14 21  1  0
 14 19  1  0
  1 11  1  0
  2 11  2  0
 11 28  1  0
 19 27  1  0
 27 15  1  0
 30 28  2  0
 28 24  1  0
 15 16  2  0
 24  6  1  0
 24 25  1  0
  6 29  1  0
 25 17  1  0
 29 20  1  0
 17 20  1  0
  1 32  1  0
  2 33  1  0
  6 57  1  0
  6 34  1  0
  7 35  1  0
  8 36  1  0
 10 37  1  0
 10 38  1  0
 10 39  1  0
 15 40  1  0
 16 41  1  0
 16 42  1  0
 17 43  1  0
 17 44  1  0
 19 45  1  0
 19 46  1  0
 21 47  1  0
 22 48  1  0
 25 49  1  0
 25 50  1  0
 26 51  1  0
 27 52  1  0
 27 53  1  0
 29 54  1  0
 29 55  1  0
M  END
