
     RDKit          3D

 31 32  0  0  0  0  0  0  0  0999 V2000
    4.3264    1.5964    0.2638 C   0  0  0  0  0  0  0  0  0  0  0  0
    2.9303    1.6440    0.4574 O   0  0  0  0  0  0  0  0  0  0  0  0
    2.2011    0.5213    0.2347 C   0  0  0  0  0  0  0  0  0  0  0  0
    2.7684   -0.6965   -0.1874 C   0  0  0  0  0  0  0  0  0  0  0  0
    1.9771   -1.8114   -0.4061 C   0  0  0  0  0  0  0  0  0  0  0  0
    0.6087   -1.6999   -0.1980 C   0  0  0  0  0  0  0  0  0  0  0  0
   -0.4000   -2.6149   -0.3326 N   0  0  0  0  0  0  0  0  0  0  0  0
   -1.5836   -2.0265   -0.0034 C   0  0  0  0  0  0  0  0  0  0  0  0
   -1.3850   -0.7191    0.3502 C   0  0  0  0  0  0  0  0  0  0  0  0
   -2.4319    0.2594    0.7712 C   0  0  0  0  0  0  0  0  0  0  0  0
   -3.1433    0.8748   -0.3412 N   0  0  0  0  0  0  0  0  0  0  0  0
   -4.2288    1.6971    0.1460 C   0  0  0  0  0  0  0  0  0  0  0  0
   -2.2655    1.6376   -1.2007 C   0  0  0  0  0  0  0  0  0  0  0  0
    0.0240   -0.4881    0.2297 C   0  0  0  0  0  0  0  0  0  0  0  0
    0.8352    0.6287    0.4440 C   0  0  0  0  0  0  0  0  0  0  0  0
    4.5935    1.3577   -0.7695 H   0  0  0  0  0  0  0  0  0  0  0  0
    4.7057    2.5885    0.4978 H   0  0  0  0  0  0  0  0  0  0  0  0
    4.8121    0.8737    0.9256 H   0  0  0  0  0  0  0  0  0  0  0  0
    3.8340   -0.7857   -0.3471 H   0  0  0  0  0  0  0  0  0  0  0  0
    2.4257   -2.7414   -0.7312 H   0  0  0  0  0  0  0  0  0  0  0  0
   -0.2907   -3.5744   -0.6135 H   0  0  0  0  0  0  0  0  0  0  0  0
   -2.5030   -2.5904   -0.0417 H   0  0  0  0  0  0  0  0  0  0  0  0
   -3.1756   -0.2494    1.3909 H   0  0  0  0  0  0  0  0  0  0  0  0
   -1.9677    1.0239    1.4199 H   0  0  0  0  0  0  0  0  0  0  0  0
   -3.8918    2.5425    0.7678 H   0  0  0  0  0  0  0  0  0  0  0  0
   -4.7920    2.1093   -0.6930 H   0  0  0  0  0  0  0  0  0  0  0  0
   -4.9155    1.0983    0.7468 H   0  0  0  0  0  0  0  0  0  0  0  0
   -1.4929    0.9972   -1.6255 H   0  0  0  0  0  0  0  0  0  0  0  0
   -2.8365    2.0617   -2.0279 H   0  0  0  0  0  0  0  0  0  0  0  0
   -1.7639    2.4698   -0.6796 H   0  0  0  0  0  0  0  0  0  0  0  0
    0.4106    1.5711    0.7701 H   0  0  0  0  0  0  0  0  0  0  0  0
  8  7  1  0
  8  9  2  0
  7  6  1  0
 10  9  1  0
 10 11  1  0
  9 14  1  0
 12 11  1  0
  6 14  2  0
  6  5  1  0
 11 13  1  0
 14 15  1  0
  5  4  2  0
 15  3  2  0
  4  3  1  0
  3  2  1  0
  2  1  1  0
  1 16  1  0
  1 17  1  0
  1 18  1  0
  4 19  1  0
  5 20  1  0
  7 21  1  0
  8 22  1  0
 10 23  1  0
 10 24  1  0
 12 25  1  0
 12 26  1  0
 12 27  1  0
 13 28  1  0
 13 29  1  0
 13 30  1  0
 15 31  1  0
M  END
