
     RDKit          3D

 24 25  0  0  0  0  0  0  0  0999 V2000
   -0.9243   -1.3786    0.0058 C   0  0  0  0  0  0  0  0  0  0  0  0
   -1.9683    1.1903   -0.0276 C   0  0  0  0  0  0  0  0  0  0  0  0
   -4.3044    0.2992   -0.0023 C   0  0  1  0  0  0  0  0  0  0  0  0
    5.8117    0.6474   -0.0055 O   0  0  0  0  0  0  0  0  0  0  0  0
    4.2872    2.2854   -0.0404 O   0  0  0  0  0  0  0  0  0  0  0  0
    3.5179    0.0889    0.0012 C   0  0  0  0  0  0  0  0  0  0  0  0
    3.6736   -1.2662    0.0218 C   0  0  0  0  0  0  0  0  0  0  0  0
    2.1503   -2.0159    0.0301 S   0  0  0  0  0  0  0  0  0  0  0  0
    1.3919   -0.4521    0.0067 C   0  0  0  0  0  0  0  0  0  0  0  0
    2.2328    0.5312   -0.0068 N   0  0  0  0  0  0  0  0  0  0  0  0
   -0.0611   -0.2850    0.0004 C   0  0  0  0  0  0  0  0  0  0  0  0
   -2.2957   -1.1929   -0.0091 C   0  0  0  0  0  0  0  0  0  0  0  0
   -2.8221    0.0923   -0.0298 C   0  0  0  0  0  0  0  0  0  0  0  0
   -0.5989    1.0022   -0.0146 C   0  0  0  0  0  0  0  0  0  0  0  0
   -4.6697    1.4115   -0.6492 F   0  0  0  0  0  0  0  0  0  0  0  0
   -4.9675   -0.7183   -0.5606 F   0  0  0  0  0  0  0  0  0  0  0  0
   -4.7607    0.4156    1.2541 F   0  0  0  0  0  0  0  0  0  0  0  0
   -0.5436   -2.3928    0.0184 H   0  0  0  0  0  0  0  0  0  0  0  0
   -2.3566    2.1998   -0.0426 H   0  0  0  0  0  0  0  0  0  0  0  0
    5.0677    2.8603   -0.0523 H   0  0  0  0  0  0  0  0  0  0  0  0
    4.5878   -1.8383    0.0350 H   0  0  0  0  0  0  0  0  0  0  0  0
   -2.9400   -2.0614   -0.0064 H   0  0  0  0  0  0  0  0  0  0  0  0
    0.0589    1.8601   -0.0174 H   0  0  0  0  0  0  0  0  0  0  0  0
    4.6638    1.0199   -0.0147 C   0  0  0  0  0  0  0  0  0  0  0  0
  8  7  1  0
  8  9  1  0
  7  6  2  0
  1 12  2  0
  1 11  1  0
 12 13  1  0
  4 24  2  0
  3 16  1  6
  9 11  1  0
  9 10  2  0
  6 24  1  0
  6 10  1  0
 11 14  2  0
 15  3  1  0
 24  5  1  0
 13  3  1  0
 13  2  2  0
  3 17  1  0
 14  2  1  0
  1 18  1  0
  2 19  1  0
  5 20  1  0
  7 21  1  0
 12 22  1  0
 14 23  1  0
M  END
