
     RDKit          3D

 19 20  0  0  0  0  0  0  0  0999 V2000
    1.3655   -0.0660    0.0216 C   0  0  0  0  0  0  0  0  0  0  0  0
    2.2572    1.0029    0.0022 C   0  0  0  0  0  0  0  0  0  0  0  0
    3.6157    0.7422   -0.0068 C   0  0  0  0  0  0  0  0  0  0  0  0
    4.0387   -0.5781    0.0033 C   0  0  0  0  0  0  0  0  0  0  0  0
    3.1992   -1.6084    0.0218 N   0  0  0  0  0  0  0  0  0  0  0  0
    1.9008   -1.3564    0.0310 C   0  0  0  0  0  0  0  0  0  0  0  0
   -0.0830    0.1145    0.0321 C   0  0  0  0  0  0  0  0  0  0  0  0
   -0.8225    1.6895    0.0822 S   0  0  0  0  0  0  0  0  0  0  0  0
   -2.3556    0.9626    0.0683 C   0  0  0  0  0  0  0  0  0  0  0  0
   -2.2202   -0.3961    0.0287 C   0  0  0  0  0  0  0  0  0  0  0  0
   -0.9384   -0.8556    0.0088 N   0  0  0  0  0  0  0  0  0  0  0  0
   -3.3294   -1.3558    0.0058 C   0  0  0  0  0  0  0  0  0  0  0  0
   -4.4943   -1.0374    0.0204 O   0  0  0  0  0  0  0  0  0  0  0  0
    1.9104    2.0296   -0.0073 H   0  0  0  0  0  0  0  0  0  0  0  0
    4.3360    1.5475   -0.0220 H   0  0  0  0  0  0  0  0  0  0  0  0
    5.0967   -0.8131   -0.0038 H   0  0  0  0  0  0  0  0  0  0  0  0
    1.2378   -2.2136    0.0477 H   0  0  0  0  0  0  0  0  0  0  0  0
   -3.2627    1.5463    0.0894 H   0  0  0  0  0  0  0  0  0  0  0  0
   -3.0107   -2.4104   -0.0265 H   0  0  0  0  0  0  0  0  0  0  0  0
  7  1  1  0
  1  6  1  0
  1  2  2  0
  2  3  1  0
  2 14  1  0
  3  4  2  0
  3 15  1  0
  5  4  1  0
  4 16  1  0
  6  5  2  0
  6 17  1  0
 11  7  2  0
  8  7  1  0
  9  8  1  0
 10  9  2  0
  9 18  1  0
 12 10  1  0
 10 11  1  0
 13 12  2  0
 12 19  1  0
M  END
