
     RDKit          3D

 93 96  0  0  0  0  0  0  0  0999 V2000
   -2.9266   -0.6048    0.1373 C   0  0  0  0  0  0  0  0  0  0  0  0
   -4.1417   -0.6737    1.0671 C   0  0  1  0  0  0  0  0  0  0  0  0
   -5.4366   -0.1466    0.4481 C   0  0  2  0  0  0  0  0  0  0  0  0
   -4.4205   -2.0880    1.5683 C   0  0  0  0  0  0  0  0  0  0  0  0
   -5.0816   -2.9697    0.5386 C   0  0  0  0  0  0  0  0  0  0  0  0
   -5.0111   -4.3511    0.7147 C   0  0  0  0  0  0  0  0  0  0  0  0
   -5.6047   -5.2263   -0.1835 C   0  0  0  0  0  0  0  0  0  0  0  0
   -5.5565   -6.5685   -0.0376 O   0  0  0  0  0  0  0  0  0  0  0  0
   -6.2746   -4.7093   -1.2888 C   0  0  0  0  0  0  0  0  0  0  0  0
   -6.3423   -3.3382   -1.4599 C   0  0  0  0  0  0  0  0  0  0  0  0
   -5.7667   -2.4395   -0.5593 C   0  0  0  0  0  0  0  0  0  0  0  0
   -5.8273   -0.9453   -0.8049 C   0  0  1  0  0  0  0  0  0  0  0  0
   -7.1823   -0.4656   -1.3461 C   0  0  0  0  0  0  0  0  0  0  0  0
   -7.2106    1.0431   -1.6179 C   0  0  0  0  0  0  0  0  0  0  0  0
   -6.7781    1.8411   -0.3908 C   0  0  2  0  0  0  0  0  0  0  0  0
   -5.4065    1.3209    0.0643 C   0  0  1  0  0  0  0  0  0  0  0  0
   -7.8463    1.7681    0.7049 C   0  0  0  0  0  0  0  0  0  0  0  0
   -6.4010    3.3001   -0.6655 C   0  0  1  0  0  0  0  0  0  0  0  0
   -7.5122    4.1247   -0.8641 O   0  0  0  0  0  0  0  0  0  0  0  0
   -5.5477    3.6708    0.5635 C   0  0  2  0  0  0  0  0  0  0  0  0
   -4.3130    4.9205    0.1253 Cl  0  0  0  0  0  0  0  0  0  0  0  0
   -4.9228    2.3607    1.0741 C   0  0  0  0  0  0  0  0  0  0  0  0
   -2.9962   -1.3714   -0.6420 H   0  0  0  0  0  0  0  0  0  0  0  0
   -2.9229    0.3550   -0.3906 H   0  0  0  0  0  0  0  0  0  0  0  0
   -3.9160   -0.0552    1.9440 H   0  0  0  0  0  0  0  0  0  0  0  0
   -6.2173   -0.2960    1.2075 H   0  0  0  0  0  0  0  0  0  0  0  0
   -3.5040   -2.5690    1.9190 H   0  0  0  0  0  0  0  0  0  0  0  0
   -5.0727   -2.0291    2.4468 H   0  0  0  0  0  0  0  0  0  0  0  0
   -4.4777   -4.7446    1.5752 H   0  0  0  0  0  0  0  0  0  0  0  0
   -5.0639   -6.7988    0.7578 H   0  0  0  0  0  0  0  0  0  0  0  0
   -6.7338   -5.3755   -2.0086 H   0  0  0  0  0  0  0  0  0  0  0  0
   -6.8579   -2.9651   -2.3360 H   0  0  0  0  0  0  0  0  0  0  0  0
   -5.0768   -0.7154   -1.5769 H   0  0  0  0  0  0  0  0  0  0  0  0
   -7.4257   -0.9813   -2.2769 H   0  0  0  0  0  0  0  0  0  0  0  0
   -7.9668   -0.7408   -0.6347 H   0  0  0  0  0  0  0  0  0  0  0  0
   -6.5257    1.2666   -2.4441 H   0  0  0  0  0  0  0  0  0  0  0  0
   -8.2101    1.3382   -1.9497 H   0  0  0  0  0  0  0  0  0  0  0  0
   -4.7449    1.4049   -0.8098 H   0  0  0  0  0  0  0  0  0  0  0  0
   -8.7722    2.2322    0.3650 H   0  0  0  0  0  0  0  0  0  0  0  0
   -8.0857    0.7413    0.9758 H   0  0  0  0  0  0  0  0  0  0  0  0
   -7.5464    2.2731    1.6247 H   0  0  0  0  0  0  0  0  0  0  0  0
   -5.7481    3.3082   -1.5503 H   0  0  0  0  0  0  0  0  0  0  0  0
   -7.2076    4.9801   -1.1829 H   0  0  0  0  0  0  0  0  0  0  0  0
   -6.1647    4.1489    1.3229 H   0  0  0  0  0  0  0  0  0  0  0  0
   -5.2867    2.1473    2.0814 H   0  0  0  0  0  0  0  0  0  0  0  0
   -3.8363    2.4119    1.1336 H   0  0  0  0  0  0  0  0  0  0  0  0
   -1.6027   -0.7484    0.8798 C   0  0  0  0  0  0  0  0  0  0  0  0
   -0.3802   -0.6026   -0.0171 C   0  0  0  0  0  0  0  0  0  0  0  0
    0.9289   -0.7173    0.7540 C   0  0  0  0  0  0  0  0  0  0  0  0
    2.1693   -0.5383   -0.1114 C   0  0  0  0  0  0  0  0  0  0  0  0
    3.4667   -0.6358    0.6816 C   0  0  0  0  0  0  0  0  0  0  0  0
    4.7138   -0.4299   -0.1681 C   0  0  0  0  0  0  0  0  0  0  0  0
    6.0065   -0.5131    0.6339 C   0  0  0  0  0  0  0  0  0  0  0  0
    7.2479   -0.2720   -0.2158 C   0  0  0  0  0  0  0  0  0  0  0  0
    8.5245   -0.3492    0.6071 C   0  0  0  0  0  0  0  0  0  0  0  0
    9.7783   -0.0644   -0.1983 C   0  0  0  0  0  0  0  0  0  0  0  0
   10.9633   -0.2104    0.4318 N   0  0  0  0  0  0  0  0  0  0  0  0
    9.7134    0.2857   -1.3719 O   0  0  0  0  0  0  0  0  0  0  0  0
   12.1983    0.0308   -0.2960 C   0  0  0  0  0  0  0  0  0  0  0  0
   12.6784    1.4732   -0.1853 C   0  0  0  0  0  0  0  0  0  0  0  0
   13.9700    1.7145   -0.9562 C   0  0  0  0  0  0  0  0  0  0  0  0
   14.4541    3.1537   -0.8469 C   0  0  0  0  0  0  0  0  0  0  0  0
   11.0983   -0.5983    1.8211 C   0  0  0  0  0  0  0  0  0  0  0  0
   -1.5557    0.0086    1.6711 H   0  0  0  0  0  0  0  0  0  0  0  0
   -1.5579   -1.7170    1.3886 H   0  0  0  0  0  0  0  0  0  0  0  0
   -0.4090   -1.3619   -0.8065 H   0  0  0  0  0  0  0  0  0  0  0  0
   -0.4174    0.3667   -0.5272 H   0  0  0  0  0  0  0  0  0  0  0  0
    0.9393    0.0304    1.5554 H   0  0  0  0  0  0  0  0  0  0  0  0
    0.9704   -1.6924    1.2526 H   0  0  0  0  0  0  0  0  0  0  0  0
    2.1715   -1.2900   -0.9088 H   0  0  0  0  0  0  0  0  0  0  0  0
    2.1246    0.4348   -0.6136 H   0  0  0  0  0  0  0  0  0  0  0  0
    3.4528    0.1068    1.4875 H   0  0  0  0  0  0  0  0  0  0  0  0
    3.5176   -1.6136    1.1739 H   0  0  0  0  0  0  0  0  0  0  0  0
    4.7355   -1.1748   -0.9713 H   0  0  0  0  0  0  0  0  0  0  0  0
    4.6585    0.5463   -0.6628 H   0  0  0  0  0  0  0  0  0  0  0  0
    5.9746    0.2207    1.4473 H   0  0  0  0  0  0  0  0  0  0  0  0
    6.0718   -1.4952    1.1156 H   0  0  0  0  0  0  0  0  0  0  0  0
    7.2827   -1.0053   -1.0263 H   0  0  0  0  0  0  0  0  0  0  0  0
    7.1734    0.7087   -0.6922 H   0  0  0  0  0  0  0  0  0  0  0  0
    8.4690    0.3659    1.4353 H   0  0  0  0  0  0  0  0  0  0  0  0
    8.6035   -1.3339    1.0788 H   0  0  0  0  0  0  0  0  0  0  0  0
   12.9586   -0.6483    0.0985 H   0  0  0  0  0  0  0  0  0  0  0  0
   12.0563   -0.2342   -1.3433 H   0  0  0  0  0  0  0  0  0  0  0  0
   11.8965    2.1391   -0.5615 H   0  0  0  0  0  0  0  0  0  0  0  0
   12.8275    1.7317    0.8684 H   0  0  0  0  0  0  0  0  0  0  0  0
   14.7476    1.0374   -0.5892 H   0  0  0  0  0  0  0  0  0  0  0  0
   13.8163    1.4583   -2.0089 H   0  0  0  0  0  0  0  0  0  0  0  0
   15.3678    3.3140   -1.4202 H   0  0  0  0  0  0  0  0  0  0  0  0
   13.7022    3.8508   -1.2215 H   0  0  0  0  0  0  0  0  0  0  0  0
   14.6616    3.4215    0.1907 H   0  0  0  0  0  0  0  0  0  0  0  0
   11.1906   -1.6809    1.9369 H   0  0  0  0  0  0  0  0  0  0  0  0
   11.9940   -0.1377    2.2354 H   0  0  0  0  0  0  0  0  0  0  0  0
   10.2599   -0.2578    2.4227 H   0  0  0  0  0  0  0  0  0  0  0  0
  8  7  1  0
  7  6  2  0
  7  9  1  0
  6  5  1  0
  9 10  2  0
  4  5  1  0
  4  2  1  0
  5 11  2  0
 10 11  1  0
 11 12  1  0
 15 17  1  1
  2  3  1  0
  2  1  1  0
  3 12  1  0
  3 16  1  0
 22 16  1  0
 22 20  1  0
 12 13  1  0
 16 15  1  0
 20 18  1  0
 20 21  1  0
 13 14  1  0
 15 18  1  0
 15 14  1  0
 18 19  1  0
  1 23  1  0
  1 24  1  0
  2 25  1  1
  3 26  1  1
  4 27  1  0
  4 28  1  0
  6 29  1  0
  8 30  1  0
  9 31  1  0
 10 32  1  0
 12 33  1  6
 13 34  1  0
 13 35  1  0
 14 36  1  0
 14 37  1  0
 16 38  1  6
 17 39  1  0
 17 40  1  0
 17 41  1  0
 18 42  1  6
 19 43  1  0
 20 44  1  1
 22 45  1  0
 22 46  1  0
  1 47  1  0
 47 48  1  0
 48 49  1  0
 49 50  1  0
 50 51  1  0
 51 52  1  0
 52 53  1  0
 53 54  1  0
 54 55  1  0
 55 56  1  0
 56 57  1  0
 56 58  2  0
 57 59  1  0
 59 60  1  0
 60 61  1  0
 61 62  1  0
 57 63  1  0
 47 64  1  0
 47 65  1  0
 48 66  1  0
 48 67  1  0
 49 68  1  0
 49 69  1  0
 50 70  1  0
 50 71  1  0
 51 72  1  0
 51 73  1  0
 52 74  1  0
 52 75  1  0
 53 76  1  0
 53 77  1  0
 54 78  1  0
 54 79  1  0
 55 80  1  0
 55 81  1  0
 59 82  1  0
 59 83  1  0
 60 84  1  0
 60 85  1  0
 61 86  1  0
 61 87  1  0
 62 88  1  0
 62 89  1  0
 62 90  1  0
 63 91  1  0
 63 92  1  0
 63 93  1  0
M  END
