
     RDKit          3D

 52 55  0  0  0  0  0  0  0  0999 V2000
   -0.1028   -2.3471   -0.0831 C   0  0  0  0  0  0  0  0  0  0  0  0
   -2.2404   -1.3179    0.1300 C   0  0  0  0  0  0  0  0  0  0  0  0
   -1.7993   -0.1478   -0.5080 C   0  0  0  0  0  0  0  0  0  0  0  0
   -3.9978    0.7700   -0.2170 C   0  0  0  0  0  0  0  0  0  0  0  0
   -5.1698    1.6094   -0.2142 C   0  0  0  0  0  0  0  0  0  0  0  0
   -6.1359    0.8826    0.3907 C   0  0  0  0  0  0  0  0  0  0  0  0
   -4.3816   -0.4214    0.4085 C   0  0  0  0  0  0  0  0  0  0  0  0
   -3.5326   -1.4887    0.6025 C   0  0  0  0  0  0  0  0  0  0  0  0
    4.5680   -1.1377   -1.5385 O   0  0  0  0  0  0  0  0  0  0  0  0
    4.2018   -0.6558   -0.4732 C   0  0  0  0  0  0  0  0  0  0  0  0
    5.0743   -0.1471    0.4242 N   0  0  0  0  0  0  0  0  0  0  0  0
    6.4814    0.0042    0.0859 C   0  0  0  0  0  0  0  0  0  0  0  0
    6.8069    1.4701   -0.1791 C   0  0  0  0  0  0  0  0  0  0  0  0
    6.4083    2.3373    1.0123 C   0  0  0  0  0  0  0  0  0  0  0  0
    4.9560    2.0885    1.4089 C   0  0  0  0  0  0  0  0  0  0  0  0
    4.6988    0.5997    1.6136 C   0  0  0  0  0  0  0  0  0  0  0  0
    2.7290   -0.6272   -0.1032 C   0  0  0  0  0  0  0  0  0  0  0  0
    0.3908   -1.1675   -0.7797 C   0  0  0  0  0  0  0  0  0  0  0  0
    0.5498   -3.3311    0.1741 O   0  0  0  0  0  0  0  0  0  0  0  0
   -1.3932   -2.3561    0.3177 O   0  0  0  0  0  0  0  0  0  0  0  0
   -0.4225   -0.0965   -0.9641 C   0  0  0  0  0  0  0  0  0  0  0  0
    0.0438    1.1655   -1.6157 C   0  0  0  0  0  0  0  0  0  0  0  0
   -2.7003    0.9089   -0.6761 C   0  0  0  0  0  0  0  0  0  0  0  0
   -5.2555    2.9870   -0.7706 C   0  0  0  0  0  0  0  0  0  0  0  0
   -7.5524    1.1676    0.7063 C   0  0  0  0  0  0  0  0  0  0  0  0
   -5.6711   -0.3530    0.7756 O   0  0  0  0  0  0  0  0  0  0  0  0
   -3.8409   -2.4048    1.0889 H   0  0  0  0  0  0  0  0  0  0  0  0
    7.0756   -0.3616    0.9298 H   0  0  0  0  0  0  0  0  0  0  0  0
    6.7203   -0.6166   -0.7731 H   0  0  0  0  0  0  0  0  0  0  0  0
    7.8738    1.5730   -0.3891 H   0  0  0  0  0  0  0  0  0  0  0  0
    6.2709    1.7971   -1.0755 H   0  0  0  0  0  0  0  0  0  0  0  0
    7.0600    2.1037    1.8609 H   0  0  0  0  0  0  0  0  0  0  0  0
    6.5639    3.3936    0.7830 H   0  0  0  0  0  0  0  0  0  0  0  0
    4.7056    2.6288    2.3243 H   0  0  0  0  0  0  0  0  0  0  0  0
    4.2869    2.4583    0.6251 H   0  0  0  0  0  0  0  0  0  0  0  0
    3.6616    0.4154    1.8792 H   0  0  0  0  0  0  0  0  0  0  0  0
    5.3016    0.2304    2.4493 H   0  0  0  0  0  0  0  0  0  0  0  0
    2.5775   -1.1716    0.8334 H   0  0  0  0  0  0  0  0  0  0  0  0
    2.4232    0.4033    0.1011 H   0  0  0  0  0  0  0  0  0  0  0  0
    1.9798   -0.6713   -2.1267 H   0  0  0  0  0  0  0  0  0  0  0  0
    2.1237   -2.2445   -1.3950 H   0  0  0  0  0  0  0  0  0  0  0  0
   -0.0411    2.0036   -0.9218 H   0  0  0  0  0  0  0  0  0  0  0  0
    1.0763    1.1153   -1.9457 H   0  0  0  0  0  0  0  0  0  0  0  0
   -0.5686    1.4075   -2.4857 H   0  0  0  0  0  0  0  0  0  0  0  0
   -2.3883    1.8256   -1.1578 H   0  0  0  0  0  0  0  0  0  0  0  0
   -4.5595    3.6595   -0.2660 H   0  0  0  0  0  0  0  0  0  0  0  0
   -5.0031    2.9999   -1.8323 H   0  0  0  0  0  0  0  0  0  0  0  0
   -6.2552    3.4044   -0.6631 H   0  0  0  0  0  0  0  0  0  0  0  0
   -8.2160    0.4175    0.2727 H   0  0  0  0  0  0  0  0  0  0  0  0
   -7.7269    1.1804    1.7839 H   0  0  0  0  0  0  0  0  0  0  0  0
   -7.8381    2.1383    0.3076 H   0  0  0  0  0  0  0  0  0  0  0  0
    1.8353   -1.2142   -1.1932 C   0  0  0  0  0  0  0  0  0  0  0  0
 24  5  1  0
 25  6  1  0
  5  6  2  0
  5  4  1  0
  6 26  1  0
  4 23  2  0
  4  7  1  0
 23  3  1  0
 26  7  1  0
  7  8  2  0
 22 21  1  0
  3 21  1  0
  3  2  2  0
 21 18  2  0
  8  2  1  0
  9 10  2  0
  2 20  1  0
 17 10  1  0
 17 52  1  0
 18 52  1  0
 18  1  1  0
 10 11  1  0
 20  1  1  0
  1 19  2  0
 11 12  1  0
 11 16  1  0
 13 12  1  0
 13 14  1  0
 15 14  1  0
 15 16  1  0
  8 27  1  0
 12 28  1  0
 12 29  1  0
 13 30  1  0
 13 31  1  0
 14 32  1  0
 14 33  1  0
 15 34  1  0
 15 35  1  0
 16 36  1  0
 16 37  1  0
 17 38  1  0
 17 39  1  0
 52 40  1  0
 52 41  1  0
 22 42  1  0
 22 43  1  0
 22 44  1  0
 23 45  1  0
 24 46  1  0
 24 47  1  0
 24 48  1  0
 25 49  1  0
 25 50  1  0
 25 51  1  0
M  END
