
     RDKit          3D

 59 63  0  0  0  0  0  0  0  0999 V2000
   -0.4948    0.8429    0.3353 O   0  0  0  0  0  0  0  0  0  0  0  0
   -0.1835    2.0058    0.1981 C   0  0  0  0  0  0  0  0  0  0  0  0
    1.0649    2.5460    0.2334 N   0  0  0  0  0  0  0  0  0  0  0  0
    2.2761    1.8371    0.2978 C   0  0  0  0  0  0  0  0  0  0  0  0
    2.3469    0.5304    0.7976 C   0  0  0  0  0  0  0  0  0  0  0  0
    3.4496    2.4729   -0.1207 C   0  0  0  0  0  0  0  0  0  0  0  0
    4.6734    1.8191   -0.0646 C   0  0  0  0  0  0  0  0  0  0  0  0
    4.7364    0.5181    0.4007 C   0  0  0  0  0  0  0  0  0  0  0  0
    3.5741   -0.1059    0.8412 C   0  0  0  0  0  0  0  0  0  0  0  0
    3.8941   -1.4738    1.3715 C   0  0  0  0  0  0  0  0  0  0  0  0
    5.4027   -1.3726    1.6266 C   0  0  0  0  0  0  0  0  0  0  0  0
    5.9253   -0.4040    0.5472 C   0  0  1  0  0  0  0  0  0  0  0  0
    6.2167   -1.1132   -0.7016 N   0  0  0  0  0  0  0  0  0  0  0  0
    6.3881   -0.2265   -1.8346 C   0  0  0  0  0  0  0  0  0  0  0  0
    7.3944   -1.9500   -0.5693 C   0  0  0  0  0  0  0  0  0  0  0  0
   -1.1682    3.1427   -0.0622 C   0  0  2  0  0  0  0  0  0  0  0  0
   -0.3918    4.3789    0.3615 C   0  0  0  0  0  0  0  0  0  0  0  0
    1.0427    3.9946    0.0302 C   0  0  0  0  0  0  0  0  0  0  0  0
   -2.4284    2.9813    0.6199 N   0  0  0  0  0  0  0  0  0  0  0  0
   -3.7666    2.3921   -0.1302 S   0  0  1  0  0  0  0  0  0  0  0  0
   -4.8338    2.5003    0.8496 O   0  0  0  0  0  0  0  0  0  0  0  0
   -3.8687    3.0763   -1.4085 O   0  0  0  0  0  0  0  0  0  0  0  0
   -3.5004    0.6730   -0.4623 C   0  0  0  0  0  0  0  0  0  0  0  0
   -3.7658   -0.2353    0.5243 C   0  0  0  0  0  0  0  0  0  0  0  0
   -3.5055   -1.6023    0.3023 C   0  0  0  0  0  0  0  0  0  0  0  0
   -2.9735   -2.0130   -0.9458 C   0  0  0  0  0  0  0  0  0  0  0  0
   -2.7260   -1.0414   -1.9429 C   0  0  0  0  0  0  0  0  0  0  0  0
   -2.9832    0.2793   -1.7122 C   0  0  0  0  0  0  0  0  0  0  0  0
   -3.7633   -2.5749    1.2961 C   0  0  0  0  0  0  0  0  0  0  0  0
   -3.5024   -3.8955    1.0675 C   0  0  0  0  0  0  0  0  0  0  0  0
   -2.9719   -4.2874   -0.1786 C   0  0  0  0  0  0  0  0  0  0  0  0
   -2.6535   -5.9675   -0.4437 Cl  0  0  0  0  0  0  0  0  0  0  0  0
   -2.7106   -3.3831   -1.1682 C   0  0  0  0  0  0  0  0  0  0  0  0
   -1.3496    3.1825   -1.1412 H   0  0  0  0  0  0  0  0  0  0  0  0
    1.7633    4.4825    0.6849 H   0  0  0  0  0  0  0  0  0  0  0  0
    1.2961    4.2431   -1.0034 H   0  0  0  0  0  0  0  0  0  0  0  0
    1.4675    0.0270    1.1658 H   0  0  0  0  0  0  0  0  0  0  0  0
    3.4242    3.4848   -0.5002 H   0  0  0  0  0  0  0  0  0  0  0  0
    5.5659    2.3400   -0.3900 H   0  0  0  0  0  0  0  0  0  0  0  0
    6.8170    0.1446    0.8960 H   0  0  0  0  0  0  0  0  0  0  0  0
    3.3270   -1.7333    2.2664 H   0  0  0  0  0  0  0  0  0  0  0  0
    3.6750   -2.2353    0.6175 H   0  0  0  0  0  0  0  0  0  0  0  0
    5.5757   -0.9230    2.6068 H   0  0  0  0  0  0  0  0  0  0  0  0
    5.9006   -2.3408    1.6291 H   0  0  0  0  0  0  0  0  0  0  0  0
    7.1818    0.5231   -1.6868 H   0  0  0  0  0  0  0  0  0  0  0  0
    6.6534   -0.8147   -2.7137 H   0  0  0  0  0  0  0  0  0  0  0  0
    5.4655    0.3030   -2.0662 H   0  0  0  0  0  0  0  0  0  0  0  0
    7.2766   -2.6767    0.2317 H   0  0  0  0  0  0  0  0  0  0  0  0
    7.5515   -2.5096   -1.4925 H   0  0  0  0  0  0  0  0  0  0  0  0
    8.3122   -1.3749   -0.3678 H   0  0  0  0  0  0  0  0  0  0  0  0
   -0.7124    5.2818   -0.1531 H   0  0  0  0  0  0  0  0  0  0  0  0
   -0.5008    4.5363    1.4362 H   0  0  0  0  0  0  0  0  0  0  0  0
   -2.3701    2.7178    1.5975 H   0  0  0  0  0  0  0  0  0  0  0  0
   -4.1694    0.0734    1.4803 H   0  0  0  0  0  0  0  0  0  0  0  0
   -2.8000    1.0095   -2.4879 H   0  0  0  0  0  0  0  0  0  0  0  0
   -4.1705   -2.2618    2.2490 H   0  0  0  0  0  0  0  0  0  0  0  0
   -2.3320   -1.3569   -2.9005 H   0  0  0  0  0  0  0  0  0  0  0  0
   -2.3066   -3.7021   -2.1201 H   0  0  0  0  0  0  0  0  0  0  0  0
   -3.6979   -4.6367    1.8300 H   0  0  0  0  0  0  0  0  0  0  0  0
  1  2  2  0
  2  3  1  0
  2 16  1  0
  3  4  1  0
  3 18  1  0
  4  5  2  0
  4  6  1  0
  5  9  1  0
  6  7  2  0
  7  8  1  0
  8  9  2  0
  8 12  1  0
  9 10  1  0
 10 11  1  0
 11 12  1  0
 12 13  1  0
 13 14  1  0
 13 15  1  0
 16 17  1  0
 16 19  1  0
 17 18  1  0
 20 19  1  1
 20 21  2  0
 20 22  2  0
 20 23  1  0
 23 24  2  0
 23 28  1  0
 24 25  1  0
 25 26  2  0
 25 29  1  0
 26 27  1  0
 26 33  1  0
 27 28  2  0
 29 30  2  0
 30 31  1  0
 31 32  1  0
 31 33  2  0
 16 34  1  6
 18 35  1  0
 18 36  1  0
  5 37  1  0
  6 38  1  0
  7 39  1  0
 12 40  1  1
 10 41  1  0
 10 42  1  0
 11 43  1  0
 11 44  1  0
 14 45  1  0
 14 46  1  0
 14 47  1  0
 15 48  1  0
 15 49  1  0
 15 50  1  0
 17 51  1  0
 17 52  1  0
 19 53  1  0
 24 54  1  0
 28 55  1  0
 29 56  1  0
 27 57  1  0
 33 58  1  0
 30 59  1  0
M  END
