
     RDKit          3D

 49 51  0  0  0  0  0  0  0  0999 V2000
    5.3642    1.6495    1.5960 O   0  0  0  0  0  0  0  0  0  0  0  0
    4.2144    1.4231    0.8247 C   0  0  1  0  0  0  0  0  0  0  0  0
    4.5811    1.5784   -0.6478 C   0  0  1  0  0  0  0  0  0  0  0  0
    5.1670    2.8296   -0.9268 O   0  0  0  0  0  0  0  0  0  0  0  0
    5.5676    0.4962   -1.0708 C   0  0  2  0  0  0  0  0  0  0  0  0
    5.8056    0.5457   -2.4561 O   0  0  0  0  0  0  0  0  0  0  0  0
    4.9957   -0.8841   -0.7433 C   0  0  2  0  0  0  0  0  0  0  0  0
    4.6065   -0.9569    0.6184 O   0  0  0  0  0  0  0  0  0  0  0  0
    6.0217   -1.9733   -0.9710 C   0  0  0  0  0  0  0  0  0  0  0  0
    5.4150   -3.2271   -0.7674 O   0  0  0  0  0  0  0  0  0  0  0  0
    3.6933    0.0002    1.0560 C   0  0  2  0  0  0  0  0  0  0  0  0
    2.4571   -0.0902    0.4185 O   0  0  0  0  0  0  0  0  0  0  0  0
    1.7354   -1.2805    0.6586 C   0  0  0  0  0  0  0  0  0  0  0  0
    0.3189   -1.0019    0.4752 C   0  0  0  0  0  0  0  0  0  0  0  0
   -0.8658   -0.7958    0.4115 C   0  0  0  0  0  0  0  0  0  0  0  0
   -2.2614   -0.5252    0.3228 C   0  0  0  0  0  0  0  0  0  0  0  0
   -3.0366   -1.0886   -0.6930 C   0  0  0  0  0  0  0  0  0  0  0  0
   -4.3933   -0.8319   -0.7631 C   0  0  0  0  0  0  0  0  0  0  0  0
   -5.0187   -0.0051    0.1712 C   0  0  0  0  0  0  0  0  0  0  0  0
   -4.2380    0.5581    1.1817 C   0  0  0  0  0  0  0  0  0  0  0  0
   -2.8821    0.3024    1.2611 C   0  0  0  0  0  0  0  0  0  0  0  0
   -6.4666    0.2651    0.0983 C   0  0  0  0  0  0  0  0  0  0  0  0
   -6.9670    1.5409    0.3587 C   0  0  0  0  0  0  0  0  0  0  0  0
   -8.3280    1.7955    0.2958 C   0  0  0  0  0  0  0  0  0  0  0  0
   -9.2146    0.7773   -0.0257 C   0  0  0  0  0  0  0  0  0  0  0  0
   -8.7287   -0.4962   -0.2867 C   0  0  0  0  0  0  0  0  0  0  0  0
   -7.3672   -0.7494   -0.2270 C   0  0  0  0  0  0  0  0  0  0  0  0
    5.0994    1.7955    2.5075 H   0  0  0  0  0  0  0  0  0  0  0  0
    3.4162    2.1336    1.0774 H   0  0  0  0  0  0  0  0  0  0  0  0
    3.6665    1.4472   -1.2397 H   0  0  0  0  0  0  0  0  0  0  0  0
    3.5831   -0.1983    2.1322 H   0  0  0  0  0  0  0  0  0  0  0  0
    4.4756    3.4381   -1.1962 H   0  0  0  0  0  0  0  0  0  0  0  0
    6.5057    0.6316   -0.5106 H   0  0  0  0  0  0  0  0  0  0  0  0
    6.0564    1.4497   -2.6717 H   0  0  0  0  0  0  0  0  0  0  0  0
    4.1357   -1.0698   -1.4037 H   0  0  0  0  0  0  0  0  0  0  0  0
    6.4111   -1.8729   -1.9895 H   0  0  0  0  0  0  0  0  0  0  0  0
    6.8650   -1.8118   -0.2857 H   0  0  0  0  0  0  0  0  0  0  0  0
    6.0742   -3.9003   -0.9522 H   0  0  0  0  0  0  0  0  0  0  0  0
    2.0529   -2.0853   -0.0129 H   0  0  0  0  0  0  0  0  0  0  0  0
    1.8984   -1.6395    1.6833 H   0  0  0  0  0  0  0  0  0  0  0  0
   -2.5675   -1.7248   -1.4312 H   0  0  0  0  0  0  0  0  0  0  0  0
   -2.2956    0.7368    2.0594 H   0  0  0  0  0  0  0  0  0  0  0  0
   -4.9705   -1.2608   -1.5722 H   0  0  0  0  0  0  0  0  0  0  0  0
   -4.7032    1.1817    1.9346 H   0  0  0  0  0  0  0  0  0  0  0  0
   -6.2832    2.3490    0.5869 H   0  0  0  0  0  0  0  0  0  0  0  0
   -7.0031   -1.7528   -0.4101 H   0  0  0  0  0  0  0  0  0  0  0  0
   -8.6960    2.7937    0.4939 H   0  0  0  0  0  0  0  0  0  0  0  0
  -10.2775    0.9743   -0.0718 H   0  0  0  0  0  0  0  0  0  0  0  0
   -9.4127   -1.2988   -0.5298 H   0  0  0  0  0  0  0  0  0  0  0  0
  1  2  1  0
  2  3  1  0
  2 11  1  0
  3  4  1  0
  3  5  1  0
  5  6  1  0
  5  7  1  0
  7  8  1  0
  7  9  1  0
  8 11  1  0
  9 10  1  0
 11 12  1  0
 12 13  1  0
 13 14  1  0
 14 15  3  0
 15 16  1  0
 16 17  2  0
 16 21  1  0
 17 18  1  0
 18 19  2  0
 19 20  1  0
 19 22  1  0
 20 21  2  0
 22 23  2  0
 22 27  1  0
 23 24  1  0
 24 25  2  0
 25 26  1  0
 26 27  2  0
  1 28  1  0
  2 29  1  1
  3 30  1  6
 11 31  1  1
  4 32  1  0
  5 33  1  1
  6 34  1  0
  7 35  1  6
  9 36  1  0
  9 37  1  0
 10 38  1  0
 13 39  1  0
 13 40  1  0
 17 41  1  0
 21 42  1  0
 18 43  1  0
 20 44  1  0
 23 45  1  0
 27 46  1  0
 24 47  1  0
 25 48  1  0
 26 49  1  0
M  END
