
     RDKit          3D

 43 43  0  0  0  0  0  0  0  0999 V2000
    1.0571    0.0529    1.0044 C   0  0  1  0  0  0  0  0  0  0  0  0
    0.6287    0.1910   -0.2810 O   0  0  0  0  0  0  0  0  0  0  0  0
    2.5836    0.0765    1.0228 C   0  0  2  0  0  0  0  0  0  0  0  0
    3.0744   -1.0937    0.3422 O   0  0  0  0  0  0  0  0  0  0  0  0
    3.1227    0.0870    2.4018 C   0  0  2  0  0  0  0  0  0  0  0  0
    2.5300    1.1878    3.2289 C   0  0  1  0  0  0  0  0  0  0  0  0
    2.9786    2.4410    2.7177 O   0  0  0  0  0  0  0  0  0  0  0  0
    0.9971    1.1637    3.2061 C   0  0  2  0  0  0  0  0  0  0  0  0
    0.4642    1.1550    1.8359 O   0  0  0  0  0  0  0  0  0  0  0  0
    0.4808    2.3764    3.9214 C   0  0  0  0  0  0  0  0  0  0  0  0
   -0.9020    2.2225    4.1721 O   0  0  0  0  0  0  0  0  0  0  0  0
    4.6255    0.2769    2.3372 N   0  0  0  0  0  0  0  0  0  0  0  0
   -0.5900   -0.4439   -0.5420 C   0  0  0  0  0  0  0  0  0  0  0  0
   -0.9115   -0.3420   -2.0370 C   0  0  0  0  0  0  0  0  0  0  0  0
   -2.2806   -0.9807   -2.3082 C   0  0  0  0  0  0  0  0  0  0  0  0
   -2.5471   -1.0025   -3.8214 C   0  0  0  0  0  0  0  0  0  0  0  0
   -3.9635   -1.5467   -4.0847 C   0  0  0  0  0  0  0  0  0  0  0  0
   -4.2022   -1.6357   -5.5866 C   0  0  0  0  0  0  0  0  0  0  0  0
    0.7172   -0.9001    1.3929 H   0  0  0  0  0  0  0  0  0  0  0  0
    2.9277    0.9626    0.5042 H   0  0  0  0  0  0  0  0  0  0  0  0
    2.7997   -1.8664    0.8082 H   0  0  0  0  0  0  0  0  0  0  0  0
    2.9022   -0.8636    2.8721 H   0  0  0  0  0  0  0  0  0  0  0  0
    2.8662    1.0786    4.2492 H   0  0  0  0  0  0  0  0  0  0  0  0
    3.5968    2.8231    3.3192 H   0  0  0  0  0  0  0  0  0  0  0  0
    0.6537    0.2741    3.7203 H   0  0  0  0  0  0  0  0  0  0  0  0
    0.6416    3.2571    3.3049 H   0  0  0  0  0  0  0  0  0  0  0  0
    1.0049    2.4920    4.8564 H   0  0  0  0  0  0  0  0  0  0  0  0
   -1.1573    2.7835    4.8972 H   0  0  0  0  0  0  0  0  0  0  0  0
    5.0026    0.2925    3.2697 H   0  0  0  0  0  0  0  0  0  0  0  0
    5.0373   -0.4820    1.8218 H   0  0  0  0  0  0  0  0  0  0  0  0
   -0.5211   -1.4900   -0.2571 H   0  0  0  0  0  0  0  0  0  0  0  0
   -1.3776    0.0356    0.0306 H   0  0  0  0  0  0  0  0  0  0  0  0
   -0.9342    0.7045   -2.3328 H   0  0  0  0  0  0  0  0  0  0  0  0
   -0.1465   -0.8649   -2.6098 H   0  0  0  0  0  0  0  0  0  0  0  0
   -3.0520   -0.4026   -1.8141 H   0  0  0  0  0  0  0  0  0  0  0  0
   -2.2880   -1.9980   -1.9242 H   0  0  0  0  0  0  0  0  0  0  0  0
   -1.8182   -1.6417   -4.3078 H   0  0  0  0  0  0  0  0  0  0  0  0
   -2.4670    0.0019   -4.2165 H   0  0  0  0  0  0  0  0  0  0  0  0
   -4.6958   -0.8797   -3.6406 H   0  0  0  0  0  0  0  0  0  0  0  0
   -4.0592   -2.5313   -3.6455 H   0  0  0  0  0  0  0  0  0  0  0  0
   -5.1548   -2.1219   -5.7736 H   0  0  0  0  0  0  0  0  0  0  0  0
   -4.2166   -0.6383   -6.0095 H   0  0  0  0  0  0  0  0  0  0  0  0
   -3.4070   -2.2104   -6.0447 H   0  0  0  0  0  0  0  0  0  0  0  0
  1  2  1  0
  1  3  1  0
  1  9  1  0
  1 19  1  1
  2 13  1  0
  3  4  1  0
  3  5  1  0
  3 20  1  6
  4 21  1  0
  5  6  1  0
  5 12  1  0
  5 22  1  1
  6  7  1  0
  6  8  1  0
  6 23  1  1
  7 24  1  0
  8  9  1  0
  8 10  1  0
  8 25  1  1
 10 11  1  0
 10 26  1  0
 10 27  1  0
 11 28  1  0
 12 29  1  0
 12 30  1  0
 13 14  1  0
 13 31  1  0
 13 32  1  0
 14 15  1  0
 14 33  1  0
 14 34  1  0
 15 16  1  0
 15 35  1  0
 15 36  1  0
 16 17  1  0
 16 37  1  0
 16 38  1  0
 17 18  1  0
 17 39  1  0
 17 40  1  0
 18 41  1  0
 18 42  1  0
 18 43  1  0
M  END
