
     RDKit          3D

 28 30  0  0  0  0  0  0  0  0999 V2000
    4.1146   -1.0560    0.2135 C   0  0  0  0  0  0  0  0  0  0  0  0
    1.3824    3.6478    0.0096 C   0  0  0  0  0  0  0  0  0  0  0  0
    2.2056    3.0000   -0.9007 C   0  0  0  0  0  0  0  0  0  0  0  0
    2.2542    1.6126   -0.9307 C   0  0  0  0  0  0  0  0  0  0  0  0
   -0.9073   -1.3660   -0.2861 C   0  0  0  0  0  0  0  0  0  0  0  0
   -1.9806   -2.1430    0.0112 C   0  0  0  0  0  0  0  0  0  0  0  0
   -3.1349   -1.3980   -0.3606 C   0  0  0  0  0  0  0  0  0  0  0  0
   -2.6571   -0.2309   -0.8517 C   0  0  0  0  0  0  0  0  0  0  0  0
    2.6797   -1.3788    0.0563 C   0  0  0  0  0  0  0  0  0  0  0  0
    1.5648   -0.6074   -0.0600 C   0  0  0  0  0  0  0  0  0  0  0  0
    0.5180   -1.5720   -0.1530 C   0  0  0  0  0  0  0  0  0  0  0  0
    1.4867    0.8575   -0.0455 C   0  0  0  0  0  0  0  0  0  0  0  0
    0.6655    1.5173    0.8689 C   0  0  0  0  0  0  0  0  0  0  0  0
    0.6116    2.9021    0.8937 C   0  0  0  0  0  0  0  0  0  0  0  0
    0.9865   -2.7889   -0.1028 N   0  0  0  0  0  0  0  0  0  0  0  0
   -1.3223   -0.1915   -0.8188 O   0  0  0  0  0  0  0  0  0  0  0  0
    2.3304   -2.6671    0.0373 O   0  0  0  0  0  0  0  0  0  0  0  0
   -3.4375    1.1337   -1.4749 Cl  0  0  0  0  0  0  0  0  0  0  0  0
    4.5618   -1.6453    1.0139 H   0  0  0  0  0  0  0  0  0  0  0  0
    4.6689   -1.2618   -0.7034 H   0  0  0  0  0  0  0  0  0  0  0  0
    4.2381   -0.0022    0.4521 H   0  0  0  0  0  0  0  0  0  0  0  0
    1.3406    4.7291    0.0316 H   0  0  0  0  0  0  0  0  0  0  0  0
    2.8068    3.5735   -1.5940 H   0  0  0  0  0  0  0  0  0  0  0  0
    2.8836    1.1127   -1.6569 H   0  0  0  0  0  0  0  0  0  0  0  0
   -1.9570   -3.1245    0.4563 H   0  0  0  0  0  0  0  0  0  0  0  0
   -4.1681   -1.6871   -0.2693 H   0  0  0  0  0  0  0  0  0  0  0  0
    0.0768    0.9445    1.5749 H   0  0  0  0  0  0  0  0  0  0  0  0
   -0.0275    3.4017    1.6101 H   0  0  0  0  0  0  0  0  0  0  0  0
  1  9  1  0
 17  9  1  0
 17 15  1  0
  9 10  2  0
 15 11  2  0
 10 11  1  0
 10 12  1  0
  4 12  2  0
  4  3  1  0
 11  5  1  0
 12 13  1  0
  3  2  2  0
  5 16  1  0
  5  6  2  0
 16  8  1  0
 13 14  2  0
  2 14  1  0
  6  7  1  0
  8 18  1  0
  8  7  2  0
  1 19  1  0
  1 20  1  0
  1 21  1  0
  2 22  1  0
  3 23  1  0
  4 24  1  0
  6 25  1  0
  7 26  1  0
 13 27  1  0
 14 28  1  0
M  END
