
     RDKit          3D

 58 60  0  0  0  0  0  0  0  0999 V2000
   -1.9628   -2.4049   -1.0206 C   0  0  1  0  0  0  0  0  0  0  0  0
   -2.9630   -1.8253   -1.7617 O   0  0  0  0  0  0  0  0  0  0  0  0
   -0.7533   -1.4788   -1.0140 C   0  0  1  0  0  0  0  0  0  0  0  0
   -1.1470   -0.2034   -0.5323 O   0  0  0  0  0  0  0  0  0  0  0  0
    0.3203   -2.0360   -0.0723 C   0  0  1  0  0  0  0  0  0  0  0  0
    1.4079   -1.1105    0.1004 N   0  0  0  0  0  0  0  0  0  0  0  0
   -0.2340   -2.4406    1.2961 C   0  0  1  0  0  0  0  0  0  0  0  0
   -0.4855   -1.2795    2.0554 O   0  0  0  0  0  0  0  0  0  0  0  0
   -1.4895   -3.2909    1.0924 C   0  0  2  0  0  0  0  0  0  0  0  0
   -2.4269   -2.6143    0.2844 O   0  0  0  0  0  0  0  0  0  0  0  0
   -2.1504   -3.6498    2.4047 C   0  0  0  0  0  0  0  0  0  0  0  0
   -3.1774   -4.5791    2.1583 O   0  0  0  0  0  0  0  0  0  0  0  0
   -1.2275    0.8318   -1.3574 C   0  0  0  0  0  0  0  0  0  0  0  0
   -1.0194    0.7750   -2.5448 O   0  0  0  0  0  0  0  0  0  0  0  0
   -1.5877    2.0773   -0.6402 C   0  0  0  0  0  0  0  0  0  0  0  0
   -1.7997    3.2352   -1.3833 C   0  0  0  0  0  0  0  0  0  0  0  0
   -2.1279    4.4230   -0.7511 C   0  0  0  0  0  0  0  0  0  0  0  0
   -2.2485    4.4884    0.6352 C   0  0  0  0  0  0  0  0  0  0  0  0
   -2.0293    3.3239    1.3722 C   0  0  0  0  0  0  0  0  0  0  0  0
   -1.7058    2.1312    0.7498 C   0  0  0  0  0  0  0  0  0  0  0  0
   -2.6151    5.7688    1.3223 C   0  0  0  0  0  0  0  0  0  0  0  0
    2.4362   -1.0031   -0.7616 C   0  0  0  0  0  0  0  0  0  0  0  0
    2.5245   -1.6899   -1.7701 O   0  0  0  0  0  0  0  0  0  0  0  0
    3.4714    0.0166   -0.4201 C   0  0  0  0  0  0  0  0  0  0  0  0
    4.2824    0.5036   -1.4431 C   0  0  0  0  0  0  0  0  0  0  0  0
    5.2585    1.4489   -1.1789 C   0  0  0  0  0  0  0  0  0  0  0  0
    5.4673    1.9275    0.1139 C   0  0  0  0  0  0  0  0  0  0  0  0
    4.6682    1.4208    1.1362 C   0  0  0  0  0  0  0  0  0  0  0  0
    3.6824    0.4820    0.8763 C   0  0  0  0  0  0  0  0  0  0  0  0
    6.5080    2.9705    0.3903 C   0  0  0  0  0  0  0  0  0  0  0  0
   -4.0465   -2.6856   -2.0638 C   0  0  0  0  0  0  0  0  0  0  0  0
   -1.6473   -3.3723   -1.4592 H   0  0  0  0  0  0  0  0  0  0  0  0
   -0.3428   -1.4067   -2.0239 H   0  0  0  0  0  0  0  0  0  0  0  0
    0.7041   -2.9451   -0.5430 H   0  0  0  0  0  0  0  0  0  0  0  0
    1.2983   -0.4386    0.8432 H   0  0  0  0  0  0  0  0  0  0  0  0
    0.5218   -3.0677    1.7843 H   0  0  0  0  0  0  0  0  0  0  0  0
   -0.2859   -1.4622    2.9777 H   0  0  0  0  0  0  0  0  0  0  0  0
   -1.1698   -4.2246    0.5998 H   0  0  0  0  0  0  0  0  0  0  0  0
   -1.3777   -4.0641    3.0667 H   0  0  0  0  0  0  0  0  0  0  0  0
   -2.5338   -2.7412    2.8839 H   0  0  0  0  0  0  0  0  0  0  0  0
   -3.6375   -4.7369    2.9873 H   0  0  0  0  0  0  0  0  0  0  0  0
   -1.7096    3.2117   -2.4612 H   0  0  0  0  0  0  0  0  0  0  0  0
   -2.2913    5.3136   -1.3453 H   0  0  0  0  0  0  0  0  0  0  0  0
   -2.1108    3.3517    2.4521 H   0  0  0  0  0  0  0  0  0  0  0  0
   -1.5370    1.2482    1.3516 H   0  0  0  0  0  0  0  0  0  0  0  0
   -3.6169    5.7060    1.7515 H   0  0  0  0  0  0  0  0  0  0  0  0
   -1.9304    5.9892    2.1418 H   0  0  0  0  0  0  0  0  0  0  0  0
   -2.6015    6.6117    0.6332 H   0  0  0  0  0  0  0  0  0  0  0  0
    4.1468    0.1447   -2.4547 H   0  0  0  0  0  0  0  0  0  0  0  0
    5.8734    1.8175   -1.9912 H   0  0  0  0  0  0  0  0  0  0  0  0
    4.8213    1.7578    2.1542 H   0  0  0  0  0  0  0  0  0  0  0  0
    3.1058    0.1011    1.7102 H   0  0  0  0  0  0  0  0  0  0  0  0
    6.0973    3.9719    0.2450 H   0  0  0  0  0  0  0  0  0  0  0  0
    6.8703    2.9146    1.4160 H   0  0  0  0  0  0  0  0  0  0  0  0
    7.3620    2.8712   -0.2791 H   0  0  0  0  0  0  0  0  0  0  0  0
   -4.6094   -2.9719   -1.1730 H   0  0  0  0  0  0  0  0  0  0  0  0
   -4.7089   -2.1445   -2.7364 H   0  0  0  0  0  0  0  0  0  0  0  0
   -3.7059   -3.5959   -2.5677 H   0  0  0  0  0  0  0  0  0  0  0  0
  1  2  1  0
  1  3  1  0
  1 10  1  0
  2 31  1  0
  3  4  1  0
  3  5  1  0
  4 13  1  0
  5  6  1  0
  5  7  1  0
  6 22  1  0
  7  8  1  0
  7  9  1  0
  9 10  1  0
  9 11  1  0
 11 12  1  0
 13 14  2  0
 13 15  1  0
 15 16  2  0
 15 20  1  0
 16 17  1  0
 17 18  2  0
 18 19  1  0
 18 21  1  0
 19 20  2  0
 22 23  2  0
 22 24  1  0
 24 25  2  0
 24 29  1  0
 25 26  1  0
 26 27  2  0
 27 28  1  0
 27 30  1  0
 28 29  2  0
  1 32  1  6
  3 33  1  6
  5 34  1  6
  6 35  1  0
  7 36  1  1
  8 37  1  0
  9 38  1  6
 11 39  1  0
 11 40  1  0
 12 41  1  0
 16 42  1  0
 17 43  1  0
 19 44  1  0
 20 45  1  0
 21 46  1  0
 21 47  1  0
 21 48  1  0
 25 49  1  0
 26 50  1  0
 28 51  1  0
 29 52  1  0
 30 53  1  0
 30 54  1  0
 30 55  1  0
 31 56  1  0
 31 57  1  0
 31 58  1  0
M  END
