
     RDKit          3D

 19 20  0  0  0  0  0  0  0  0999 V2000
   -1.1706    1.3982   -0.3282 C   0  0  0  0  0  0  0  0  0  0  0  0
    1.6401    1.5316    0.9424 O   0  0  0  0  0  0  0  0  0  0  0  0
    1.3029    0.9666   -0.3025 C   0  0  1  0  0  0  0  0  0  0  0  0
    2.1261   -0.1672   -0.6327 N   0  0  0  0  0  0  0  0  0  0  0  0
    1.8017   -1.4148   -0.2528 C   0  0  0  0  0  0  0  0  0  0  0  0
    0.6357   -1.8041    0.1248 N   0  0  0  0  0  0  0  0  0  0  0  0
   -0.3723   -0.8507    0.0638 C   0  0  0  0  0  0  0  0  0  0  0  0
   -1.6979   -1.2628    0.2423 C   0  0  0  0  0  0  0  0  0  0  0  0
   -2.7384   -0.3593    0.1317 C   0  0  0  0  0  0  0  0  0  0  0  0
   -2.4799    0.9779   -0.1626 C   0  0  0  0  0  0  0  0  0  0  0  0
   -0.1181    0.4976   -0.2128 C   0  0  0  0  0  0  0  0  0  0  0  0
   -0.9606    2.4392   -0.5452 H   0  0  0  0  0  0  0  0  0  0  0  0
    3.0726    0.0015   -0.9347 H   0  0  0  0  0  0  0  0  0  0  0  0
    2.6058   -2.1408   -0.3130 H   0  0  0  0  0  0  0  0  0  0  0  0
   -1.8929   -2.3062    0.4574 H   0  0  0  0  0  0  0  0  0  0  0  0
   -3.7582   -0.6959    0.2683 H   0  0  0  0  0  0  0  0  0  0  0  0
   -3.2940    1.6843   -0.2550 H   0  0  0  0  0  0  0  0  0  0  0  0
    2.4505    2.0440    0.8419 H   0  0  0  0  0  0  0  0  0  0  0  0
    1.4226    1.7099   -1.0963 H   0  0  0  0  0  0  0  0  0  0  0  0
  5  4  1  0
  5  6  2  0
  4  3  1  0
  6  7  1  0
  3  2  1  0
  3 11  1  0
  7 11  1  0
  7  8  2  0
 11  1  2  0
  8  9  1  0
  1 10  1  0
  9 10  2  0
  1 12  1  0
  4 13  1  0
  5 14  1  0
  8 15  1  0
  9 16  1  0
 10 17  1  0
  2 18  1  0
  3 19  1  6
M  END
