
     RDKit          3D

 51 54  0  0  0  0  0  0  0  0999 V2000
   -0.3331    0.2900    0.6925 C   0  0  2  0  0  0  0  0  0  0  0  0
   -1.8379    0.3206    0.4898 C   0  0  0  0  0  0  0  0  0  0  0  0
   -2.6603   -0.5941    1.1479 C   0  0  0  0  0  0  0  0  0  0  0  0
   -4.0390   -0.5756    1.0262 C   0  0  0  0  0  0  0  0  0  0  0  0
   -4.6416    0.3930    0.2288 C   0  0  0  0  0  0  0  0  0  0  0  0
   -5.9796    0.4727    0.0601 O   0  0  0  0  0  0  0  0  0  0  0  0
   -3.8435    1.3290   -0.4142 C   0  0  0  0  0  0  0  0  0  0  0  0
   -2.4563    1.3050   -0.2893 C   0  0  0  0  0  0  0  0  0  0  0  0
   -1.6500    2.3600   -1.0014 C   0  0  0  0  0  0  0  0  0  0  0  0
   -0.2715    2.5463   -0.3890 C   0  0  0  0  0  0  0  0  0  0  0  0
    0.4268    1.1992   -0.2903 C   0  0  1  0  0  0  0  0  0  0  0  0
    1.8642    1.2842    0.1901 C   0  0  2  0  0  0  0  0  0  0  0  0
    2.8708    2.2059   -0.4978 C   0  0  0  0  0  0  0  0  0  0  0  0
    4.2346    1.6730    0.0047 C   0  0  0  0  0  0  0  0  0  0  0  0
    3.9218    0.3614    0.7676 C   0  0  2  0  0  0  0  0  0  0  0  0
    4.8985   -0.6437    0.6464 O   0  0  0  0  0  0  0  0  0  0  0  0
    2.5710   -0.0776    0.1946 C   0  0  2  0  0  0  0  0  0  0  0  0
    2.7899   -0.6372   -1.2191 C   0  0  0  0  0  0  0  0  0  0  0  0
    1.7844   -1.0434    1.0779 C   0  0  0  0  0  0  0  0  0  0  0  0
    0.2769   -1.1281    0.7638 C   0  0  2  0  0  0  0  0  0  0  0  0
   -0.0919   -1.9771   -0.4497 C   0  0  0  0  0  0  0  0  0  0  0  0
    0.5298   -3.2350   -0.3481 O   0  0  0  0  0  0  0  0  0  0  0  0
    0.2062   -4.0824   -1.4172 C   0  0  0  0  0  0  0  0  0  0  0  0
   -0.1530    0.7231    1.6877 H   0  0  0  0  0  0  0  0  0  0  0  0
   -2.2204   -1.3528    1.7837 H   0  0  0  0  0  0  0  0  0  0  0  0
   -4.6391   -1.3099    1.5522 H   0  0  0  0  0  0  0  0  0  0  0  0
   -6.4183   -0.2376    0.5409 H   0  0  0  0  0  0  0  0  0  0  0  0
   -4.3119    2.1001   -1.0168 H   0  0  0  0  0  0  0  0  0  0  0  0
   -1.5347    2.0721   -2.0525 H   0  0  0  0  0  0  0  0  0  0  0  0
   -2.2057    3.3006   -1.0085 H   0  0  0  0  0  0  0  0  0  0  0  0
    0.3105    3.2380   -1.0022 H   0  0  0  0  0  0  0  0  0  0  0  0
   -0.3549    2.9972    0.6064 H   0  0  0  0  0  0  0  0  0  0  0  0
    0.4079    0.7570   -1.2942 H   0  0  0  0  0  0  0  0  0  0  0  0
    1.8140    1.6133    1.2403 H   0  0  0  0  0  0  0  0  0  0  0  0
    2.7932    2.1311   -1.5855 H   0  0  0  0  0  0  0  0  0  0  0  0
    2.7153    3.2543   -0.2406 H   0  0  0  0  0  0  0  0  0  0  0  0
    4.9146    1.4701   -0.8253 H   0  0  0  0  0  0  0  0  0  0  0  0
    4.7379    2.3928    0.6524 H   0  0  0  0  0  0  0  0  0  0  0  0
    3.7676    0.6042    1.8303 H   0  0  0  0  0  0  0  0  0  0  0  0
    5.7121   -0.3229    1.0468 H   0  0  0  0  0  0  0  0  0  0  0  0
    3.5779   -0.1108   -1.7585 H   0  0  0  0  0  0  0  0  0  0  0  0
    3.0752   -1.6883   -1.1773 H   0  0  0  0  0  0  0  0  0  0  0  0
    1.8977   -0.5704   -1.8375 H   0  0  0  0  0  0  0  0  0  0  0  0
    2.2256   -2.0415    1.0584 H   0  0  0  0  0  0  0  0  0  0  0  0
    1.8714   -0.6952    2.1142 H   0  0  0  0  0  0  0  0  0  0  0  0
   -0.1672   -1.6343    1.6284 H   0  0  0  0  0  0  0  0  0  0  0  0
   -1.1832   -2.1015   -0.4829 H   0  0  0  0  0  0  0  0  0  0  0  0
    0.1845   -1.4923   -1.3946 H   0  0  0  0  0  0  0  0  0  0  0  0
   -0.8725   -4.2725   -1.4832 H   0  0  0  0  0  0  0  0  0  0  0  0
    0.5322   -3.6737   -2.3816 H   0  0  0  0  0  0  0  0  0  0  0  0
    0.7122   -5.0349   -1.2603 H   0  0  0  0  0  0  0  0  0  0  0  0
  1 20  1  0
  1 11  1  0
  1  2  1  0
  1 24  1  1
  2  3  2  0
  2  8  1  0
  3  4  1  0
  3 25  1  0
  4  5  2  0
  4 26  1  0
  5  7  1  0
  5  6  1  0
  6 27  1  0
  7  8  2  0
  7 28  1  0
  8  9  1  0
  9 10  1  0
  9 29  1  0
  9 30  1  0
 10 11  1  0
 10 31  1  0
 10 32  1  0
 11 12  1  0
 11 33  1  6
 12 17  1  0
 12 13  1  0
 12 34  1  1
 13 14  1  0
 13 35  1  0
 13 36  1  0
 14 15  1  0
 14 37  1  0
 14 38  1  0
 15 16  1  0
 15 17  1  0
 15 39  1  1
 16 40  1  0
 17 19  1  0
 17 18  1  6
 18 41  1  0
 18 42  1  0
 18 43  1  0
 19 20  1  0
 19 44  1  0
 19 45  1  0
 20 21  1  0
 20 46  1  1
 21 22  1  0
 21 47  1  0
 21 48  1  0
 22 23  1  0
 23 49  1  0
 23 50  1  0
 23 51  1  0
M  END
