
     RDKit          3D

 38 39  0  0  0  0  0  0  0  0999 V2000
    3.0640   -0.5538    0.4438 O   0  0  0  0  0  0  0  0  0  0  0  0
    2.6587    0.5632    0.2519 C   0  0  0  0  0  0  0  0  0  0  0  0
    3.4245    1.5982   -0.0395 O   0  0  0  0  0  0  0  0  0  0  0  0
    4.8494    1.3958   -0.0870 C   0  0  0  0  0  0  0  0  0  0  0  0
    5.4929    2.7299   -0.3715 C   0  0  0  0  0  0  0  0  0  0  0  0
    1.2288    0.9730    0.3594 C   0  0  0  0  0  0  0  0  0  0  0  0
    0.9271    2.1718    1.0564 C   0  0  0  0  0  0  0  0  0  0  0  0
   -0.2818    2.5947    1.2784 N   0  0  0  0  0  0  0  0  0  0  0  0
   -1.3178    1.8680    0.8044 C   0  0  0  0  0  0  0  0  0  0  0  0
   -2.6268    2.3325    1.0427 C   0  0  0  0  0  0  0  0  0  0  0  0
   -3.7160    1.6466    0.5827 C   0  0  0  0  0  0  0  0  0  0  0  0
    0.1939    0.2177   -0.1390 C   0  0  0  0  0  0  0  0  0  0  0  0
    0.4904   -1.2308   -1.1177 S   0  0  0  0  0  0  0  0  0  0  0  0
    0.3879   -2.5010    0.1829 C   0  0  0  0  0  0  0  0  0  0  0  0
    0.6293   -3.8583   -0.4752 C   0  0  0  0  0  0  0  0  0  0  0  0
    0.5647   -4.9253    0.5102 C   0  0  0  0  0  0  0  0  0  0  0  0
    0.5055   -5.7630    1.2962 N   0  0  0  0  0  0  0  0  0  0  0  0
   -1.1424    0.6651    0.0698 C   0  0  0  0  0  0  0  0  0  0  0  0
   -2.2724   -0.0237   -0.4030 C   0  0  0  0  0  0  0  0  0  0  0  0
   -3.5414    0.4495   -0.1516 C   0  0  0  0  0  0  0  0  0  0  0  0
   -4.5619   -0.2730   -0.6368 O   0  0  0  0  0  0  0  0  0  0  0  0
   -5.8907    0.1561   -0.3991 C   0  0  0  0  0  0  0  0  0  0  0  0
    5.1906    0.9901    0.8672 H   0  0  0  0  0  0  0  0  0  0  0  0
    5.0848    0.6698   -0.8672 H   0  0  0  0  0  0  0  0  0  0  0  0
    5.1601    3.1432   -1.3236 H   0  0  0  0  0  0  0  0  0  0  0  0
    5.2833    3.4528    0.4166 H   0  0  0  0  0  0  0  0  0  0  0  0
    6.5731    2.5978   -0.4246 H   0  0  0  0  0  0  0  0  0  0  0  0
    1.7352    2.7776    1.4506 H   0  0  0  0  0  0  0  0  0  0  0  0
   -2.7547    3.2507    1.6008 H   0  0  0  0  0  0  0  0  0  0  0  0
   -4.7034    2.0367    0.7863 H   0  0  0  0  0  0  0  0  0  0  0  0
    1.1482   -2.2983    0.9335 H   0  0  0  0  0  0  0  0  0  0  0  0
   -0.5969   -2.4723    0.6478 H   0  0  0  0  0  0  0  0  0  0  0  0
   -0.1176   -4.0608   -1.2451 H   0  0  0  0  0  0  0  0  0  0  0  0
    1.6106   -3.8922   -0.9520 H   0  0  0  0  0  0  0  0  0  0  0  0
   -2.1468   -0.9325   -0.9774 H   0  0  0  0  0  0  0  0  0  0  0  0
   -6.0942    1.1283   -0.8543 H   0  0  0  0  0  0  0  0  0  0  0  0
   -6.5372   -0.5867   -0.8588 H   0  0  0  0  0  0  0  0  0  0  0  0
   -6.1191    0.2071    0.6680 H   0  0  0  0  0  0  0  0  0  0  0  0
  1  2  2  0
 13 14  1  0
 13 12  1  0
  4  5  1  0
  4  3  1  0
 14 15  1  0
  2  3  1  0
  2  6  1  0
 22 21  1  0
 12  6  2  0
 12 18  1  0
 17 16  3  0
  6  7  1  0
 19 18  2  0
 19 20  1  0
 16 15  1  0
 18  9  1  0
 21 20  1  0
 20 11  2  0
  7  8  2  0
  9  8  1  0
  9 10  2  0
 11 10  1  0
  4 23  1  0
  4 24  1  0
  5 25  1  0
  5 26  1  0
  5 27  1  0
  7 28  1  0
 10 29  1  0
 11 30  1  0
 14 31  1  0
 14 32  1  0
 15 33  1  0
 15 34  1  0
 19 35  1  0
 22 36  1  0
 22 37  1  0
 22 38  1  0
M  END
