
     RDKit          3D

 30 32  0  0  0  0  0  0  0  0999 V2000
   -3.7128    1.5869    0.6596 C   0  0  0  0  0  0  0  0  0  0  0  0
   -1.8208   -0.0443    0.4978 C   0  0  0  0  0  0  0  0  0  0  0  0
   -4.7033   -0.2599   -0.7445 C   0  0  0  0  0  0  0  0  0  0  0  0
   -4.0642    0.0835    0.5944 C   0  0  1  0  0  0  0  0  0  0  0  0
    2.9820    0.2261   -0.0271 C   0  0  0  0  0  0  0  0  0  0  0  0
    2.9934    1.5993   -0.2953 C   0  0  0  0  0  0  0  0  0  0  0  0
   -1.9799    1.6746    0.1229 S   0  0  0  0  0  0  0  0  0  0  0  0
   -2.8680   -0.7040    0.7586 N   0  0  0  0  0  0  0  0  0  0  0  0
   -0.4779   -0.6109    0.4769 C   0  0  0  0  0  0  0  0  0  0  0  0
   -0.1643   -1.9193    0.6930 C   0  0  0  0  0  0  0  0  0  0  0  0
    1.5196   -2.1322    0.5695 S   0  0  0  0  0  0  0  0  0  0  0  0
    1.7050   -0.4351    0.2248 C   0  0  0  0  0  0  0  0  0  0  0  0
    0.5747    0.2053    0.2146 N   0  0  0  0  0  0  0  0  0  0  0  0
    4.1739    2.2747   -0.5357 C   0  0  0  0  0  0  0  0  0  0  0  0
    5.3785    1.5787   -0.5130 C   0  0  0  0  0  0  0  0  0  0  0  0
    5.3948    0.2206   -0.2510 C   0  0  0  0  0  0  0  0  0  0  0  0
    4.2040   -0.4587   -0.0077 C   0  0  0  0  0  0  0  0  0  0  0  0
    4.1722   -1.7752    0.2505 O   0  0  0  0  0  0  0  0  0  0  0  0
   -4.1484   -0.8350   -1.6415 O   0  0  0  0  0  0  0  0  0  0  0  0
   -5.9506    0.1849   -0.8002 O   0  0  0  0  0  0  0  0  0  0  0  0
   -4.3368    2.2118    0.0246 H   0  0  0  0  0  0  0  0  0  0  0  0
   -3.7872    1.9523    1.6827 H   0  0  0  0  0  0  0  0  0  0  0  0
   -4.7819   -0.1509    1.3842 H   0  0  0  0  0  0  0  0  0  0  0  0
    2.0530    2.1335   -0.3134 H   0  0  0  0  0  0  0  0  0  0  0  0
   -0.8311   -2.7385    0.9108 H   0  0  0  0  0  0  0  0  0  0  0  0
    4.1581    3.3369   -0.7372 H   0  0  0  0  0  0  0  0  0  0  0  0
    6.3108    2.0948   -0.7007 H   0  0  0  0  0  0  0  0  0  0  0  0
    6.3336   -0.3208   -0.2316 H   0  0  0  0  0  0  0  0  0  0  0  0
    5.0605   -2.1521    0.2604 H   0  0  0  0  0  0  0  0  0  0  0  0
   -6.3343   -0.0014   -1.6705 H   0  0  0  0  0  0  0  0  0  0  0  0
 16 15  2  0
 16 17  1  0
 18 17  1  0
 15 14  1  0
 17  5  2  0
 14  6  2  0
  5  6  1  0
  5 12  1  0
  7  1  1  0
  7  2  1  0
 13 12  2  0
 13  9  1  0
  1  4  1  0
 12 11  1  0
  2  9  1  0
  2  8  2  0
  9 10  2  0
  4  8  1  0
  4  3  1  0
 11 10  1  0
 19  3  2  0
  3 20  1  0
  1 21  1  0
  1 22  1  0
  4 23  1  1
  6 24  1  0
 10 25  1  0
 14 26  1  0
 15 27  1  0
 16 28  1  0
 18 29  1  0
 20 30  1  0
M  END
