
     RDKit          3D

 31 32  0  0  0  0  0  0  0  0999 V2000
    4.5323   -2.3422   -0.2527 C   0  0  0  0  0  0  0  0  0  0  0  0
    3.3374   -1.8404    0.3398 O   0  0  0  0  0  0  0  0  0  0  0  0
    2.9067   -0.6535   -0.0833 C   0  0  0  0  0  0  0  0  0  0  0  0
    3.4598    0.0159   -0.9254 O   0  0  0  0  0  0  0  0  0  0  0  0
    1.7630   -0.3171    0.5674 N   0  0  0  0  0  0  0  0  0  0  0  0
    1.0500    0.8720    0.3451 C   0  0  0  0  0  0  0  0  0  0  0  0
   -0.3521    0.7978    0.0988 C   0  0  0  0  0  0  0  0  0  0  0  0
   -1.0433   -0.4293    0.0087 C   0  0  0  0  0  0  0  0  0  0  0  0
    1.6769    2.0903    0.3898 C   0  0  0  0  0  0  0  0  0  0  0  0
    0.9505    3.2794    0.1895 C   0  0  0  0  0  0  0  0  0  0  0  0
   -0.3986    3.2449   -0.0259 C   0  0  0  0  0  0  0  0  0  0  0  0
   -1.0780    2.0070   -0.0673 C   0  0  0  0  0  0  0  0  0  0  0  0
   -2.4720    1.9379   -0.2875 C   0  0  0  0  0  0  0  0  0  0  0  0
   -3.1198    0.7363   -0.3412 C   0  0  0  0  0  0  0  0  0  0  0  0
   -2.3999   -0.4724   -0.1968 C   0  0  0  0  0  0  0  0  0  0  0  0
   -3.0824   -1.7948   -0.2725 C   0  0  0  0  0  0  0  0  0  0  0  0
   -4.4069   -1.7819    0.0610 N   0  0  0  0  0  0  0  0  0  0  0  0
   -2.4152   -2.8087   -0.6706 N   0  0  0  0  0  0  0  0  0  0  0  0
    4.4124   -2.5043   -1.3237 H   0  0  0  0  0  0  0  0  0  0  0  0
    5.3765   -1.6746   -0.0815 H   0  0  0  0  0  0  0  0  0  0  0  0
    4.7257   -3.2942    0.2329 H   0  0  0  0  0  0  0  0  0  0  0  0
    1.3673   -0.9963    1.2000 H   0  0  0  0  0  0  0  0  0  0  0  0
   -0.5079   -1.3648    0.0986 H   0  0  0  0  0  0  0  0  0  0  0  0
    2.7360    2.1493    0.5982 H   0  0  0  0  0  0  0  0  0  0  0  0
    1.4729    4.2260    0.2290 H   0  0  0  0  0  0  0  0  0  0  0  0
   -0.9600    4.1601   -0.1668 H   0  0  0  0  0  0  0  0  0  0  0  0
   -3.0264    2.8585   -0.4221 H   0  0  0  0  0  0  0  0  0  0  0  0
   -4.1860    0.7182   -0.5248 H   0  0  0  0  0  0  0  0  0  0  0  0
   -4.7279   -1.0826    0.7106 H   0  0  0  0  0  0  0  0  0  0  0  0
   -4.8576   -2.6752    0.1837 H   0  0  0  0  0  0  0  0  0  0  0  0
   -2.9791   -3.6539   -0.6386 H   0  0  0  0  0  0  0  0  0  0  0  0
 13 14  2  0
 13 12  1  0
 11 12  2  0
 11 10  1  0
 14 15  1  0
 12  7  1  0
 10  9  2  0
 15 16  1  0
 15  8  2  0
 18 16  2  0
  7  8  1  0
  7  6  2  0
 16 17  1  0
  9  6  1  0
  6  5  1  0
  5  3  1  0
  3  2  1  0
  3  4  2  0
  2  1  1  0
  1 19  1  0
  1 20  1  0
  1 21  1  0
  5 22  1  0
  8 23  1  0
  9 24  1  0
 10 25  1  0
 11 26  1  0
 13 27  1  0
 14 28  1  0
 17 29  1  0
 17 30  1  0
 18 31  1  0
M  END
