
     RDKit          3D

 44 47  0  0  0  0  0  0  0  0999 V2000
    0.2465   -0.9005    1.0489 C   0  0  2  0  0  0  0  0  0  0  0  0
    1.1645   -0.4110   -0.0684 C   0  0  0  0  0  0  0  0  0  0  0  0
    2.6102   -0.7516    0.1838 C   0  0  0  0  0  0  0  0  0  0  0  0
    2.9766   -1.7691    1.0652 C   0  0  0  0  0  0  0  0  0  0  0  0
    1.9499   -2.5265    1.8661 C   0  0  0  0  0  0  0  0  0  0  0  0
   -1.8080    0.4184    0.8113 C   0  0  0  0  0  0  0  0  0  0  0  0
   -1.3524    1.6141    1.3514 C   0  0  0  0  0  0  0  0  0  0  0  0
    4.9305   -0.3606   -0.3229 C   0  0  0  0  0  0  0  0  0  0  0  0
    5.3149   -1.3737    0.5445 C   0  0  0  0  0  0  0  0  0  0  0  0
    4.3293   -2.0634    1.2288 C   0  0  0  0  0  0  0  0  0  0  0  0
   -7.3496   -0.0601   -1.1869 C   0  0  0  0  0  0  0  0  0  0  0  0
   -4.9375   -0.0018   -0.4182 C   0  0  0  0  0  0  0  0  0  0  0  0
   -3.8809    1.5793    0.4495 C   0  0  0  0  0  0  0  0  0  0  0  0
    0.5301   -2.3648    1.3437 C   0  0  0  0  0  0  0  0  0  0  0  0
    6.2510    0.6071   -1.2693 Br  0  0  0  0  0  0  0  0  0  0  0  0
    3.5965   -0.0463   -0.5051 C   0  0  0  0  0  0  0  0  0  0  0  0
   -1.1501   -0.7296    0.6978 N   0  0  0  0  0  0  0  0  0  0  0  0
   -2.2015    2.7264    1.4026 C   0  0  0  0  0  0  0  0  0  0  0  0
   -3.0954    0.4578    0.3704 N   0  0  0  0  0  0  0  0  0  0  0  0
   -3.4526    2.7235    0.9626 N   0  0  0  0  0  0  0  0  0  0  0  0
   -3.7697   -0.5586   -0.1845 N   0  0  0  0  0  0  0  0  0  0  0  0
   -5.0693    1.2803   -0.0601 N   0  0  0  0  0  0  0  0  0  0  0  0
   -6.2112   -1.9428   -0.3501 F   0  0  0  0  0  0  0  0  0  0  0  0
   -5.6086   -1.1902   -2.2970 F   0  0  0  0  0  0  0  0  0  0  0  0
    0.4375   -0.3229    1.9585 H   0  0  0  0  0  0  0  0  0  0  0  0
    0.8438   -0.8765   -1.0064 H   0  0  0  0  0  0  0  0  0  0  0  0
    1.0587    0.6674   -0.2090 H   0  0  0  0  0  0  0  0  0  0  0  0
    2.2117   -3.5860    1.8925 H   0  0  0  0  0  0  0  0  0  0  0  0
    1.9949   -2.1825    2.9043 H   0  0  0  0  0  0  0  0  0  0  0  0
   -0.3437    1.6908    1.7269 H   0  0  0  0  0  0  0  0  0  0  0  0
   -1.2741    4.6247    1.1385 H   0  0  0  0  0  0  0  0  0  0  0  0
   -2.4775    4.5873    2.4219 H   0  0  0  0  0  0  0  0  0  0  0  0
   -0.8811    3.8559    2.6707 H   0  0  0  0  0  0  0  0  0  0  0  0
    6.3563   -1.6268    0.6898 H   0  0  0  0  0  0  0  0  0  0  0  0
    4.6212   -2.8559    1.9080 H   0  0  0  0  0  0  0  0  0  0  0  0
   -7.7150    0.2395   -0.2068 H   0  0  0  0  0  0  0  0  0  0  0  0
   -7.2329    0.8356   -1.7937 H   0  0  0  0  0  0  0  0  0  0  0  0
   -8.0905   -0.7073   -1.6553 H   0  0  0  0  0  0  0  0  0  0  0  0
   -0.1777   -2.7473    2.0810 H   0  0  0  0  0  0  0  0  0  0  0  0
    0.3964   -2.9496    0.4281 H   0  0  0  0  0  0  0  0  0  0  0  0
    3.3039    0.7489   -1.1799 H   0  0  0  0  0  0  0  0  0  0  0  0
   -1.6133   -1.4846    0.2113 H   0  0  0  0  0  0  0  0  0  0  0  0
   -1.6802    4.0170    1.9499 C   0  0  0  0  0  0  0  0  0  0  0  0
   -6.0430   -0.7881   -1.0628 C   0  0  1  0  0  0  0  0  0  0  0  0
 43 18  1  0
 20 18  2  0
 20 13  1  0
 18  7  1  0
 13 22  2  0
 13 19  1  0
 22 12  1  0
  7  6  2  0
 44 24  1  6
 19  6  1  0
 19 21  1  0
  6 17  1  0
 12 44  1  0
 12 21  2  0
 44 11  1  0
 44 23  1  0
 17  1  1  0
  1 14  1  0
  1  2  1  0
 14  5  1  0
  2  3  1  0
  5  4  1  0
  3  4  2  0
  3 16  1  0
  4 10  1  0
 16  8  2  0
 10  9  2  0
  8  9  1  0
  8 15  1  0
  1 25  1  1
  2 26  1  0
  2 27  1  0
  5 28  1  0
  5 29  1  0
  7 30  1  0
 43 31  1  0
 43 32  1  0
 43 33  1  0
  9 34  1  0
 10 35  1  0
 11 36  1  0
 11 37  1  0
 11 38  1  0
 14 39  1  0
 14 40  1  0
 16 41  1  0
 17 42  1  0
M  END
