
     RDKit          3D

 46 48  0  0  0  0  0  0  0  0999 V2000
   -0.2456    1.1720   -0.1976 C   0  0  0  0  0  0  0  0  0  0  0  0
    4.0229   -0.1337    1.0760 C   0  0  0  0  0  0  0  0  0  0  0  0
    0.0246    2.5016   -0.4742 C   0  0  0  0  0  0  0  0  0  0  0  0
    4.9797   -1.5337   -1.1121 C   0  0  0  0  0  0  0  0  0  0  0  0
    2.2755    2.1775   -0.5575 C   0  0  0  0  0  0  0  0  0  0  0  0
    2.1270    0.8032   -0.2622 C   0  0  0  0  0  0  0  0  0  0  0  0
    3.3407   -0.0412   -0.1362 C   0  0  0  0  0  0  0  0  0  0  0  0
    3.8425   -0.7477   -1.2259 C   0  0  0  0  0  0  0  0  0  0  0  0
    5.6433   -1.6237    0.1083 C   0  0  0  0  0  0  0  0  0  0  0  0
    5.1588   -0.9149    1.2058 C   0  0  0  0  0  0  0  0  0  0  0  0
    0.8488    0.2923   -0.0828 C   0  0  0  0  0  0  0  0  0  0  0  0
    0.4914   -1.2811    1.8304 C   0  0  0  0  0  0  0  0  0  0  0  0
    0.6450   -1.1436    0.3163 C   0  0  0  0  0  0  0  0  0  0  0  0
    1.2368    3.0021   -0.6571 N   0  0  0  0  0  0  0  0  0  0  0  0
    6.7493   -2.3732    0.2810 O   0  0  0  0  0  0  0  0  0  0  0  0
    3.5111    2.7282   -0.7085 N   0  0  0  0  0  0  0  0  0  0  0  0
   -1.6501    0.7506   -0.0255 C   0  0  0  0  0  0  0  0  0  0  0  0
   -2.4436    1.2650    0.9939 C   0  0  0  0  0  0  0  0  0  0  0  0
   -3.7689    0.8725    1.0992 C   0  0  0  0  0  0  0  0  0  0  0  0
   -4.2623   -0.0355    0.1757 C   0  0  0  0  0  0  0  0  0  0  0  0
   -3.5173   -0.5284   -0.8094 N   0  0  0  0  0  0  0  0  0  0  0  0
   -2.2580   -0.1450   -0.9088 C   0  0  0  0  0  0  0  0  0  0  0  0
   -5.6896   -0.4955    0.2639 C   0  0  0  0  0  0  0  0  0  0  0  0
   -6.4394   -0.0767    1.1375 O   0  0  0  0  0  0  0  0  0  0  0  0
   -6.0536   -1.3767   -0.6683 N   0  0  0  0  0  0  0  0  0  0  0  0
   -7.3820   -1.9332   -0.7349 C   0  0  0  0  0  0  0  0  0  0  0  0
    3.6576    0.4124    1.9374 H   0  0  0  0  0  0  0  0  0  0  0  0
   -0.7982    3.2040   -0.5703 H   0  0  0  0  0  0  0  0  0  0  0  0
    5.3471   -2.0772   -1.9756 H   0  0  0  0  0  0  0  0  0  0  0  0
    3.3376   -0.6879   -2.1823 H   0  0  0  0  0  0  0  0  0  0  0  0
    5.6720   -0.9802    2.1571 H   0  0  0  0  0  0  0  0  0  0  0  0
    1.3900   -0.9445    2.3480 H   0  0  0  0  0  0  0  0  0  0  0  0
   -0.3476   -0.6914    2.2013 H   0  0  0  0  0  0  0  0  0  0  0  0
    0.3158   -2.3214    2.1038 H   0  0  0  0  0  0  0  0  0  0  0  0
   -0.2384   -1.5532   -0.1739 H   0  0  0  0  0  0  0  0  0  0  0  0
    1.4854   -1.7500   -0.0201 H   0  0  0  0  0  0  0  0  0  0  0  0
    6.9800   -2.8243   -0.5386 H   0  0  0  0  0  0  0  0  0  0  0  0
    3.5465    3.6289   -1.1568 H   0  0  0  0  0  0  0  0  0  0  0  0
    4.2838    2.1204   -0.9222 H   0  0  0  0  0  0  0  0  0  0  0  0
   -2.0238    1.9624    1.7079 H   0  0  0  0  0  0  0  0  0  0  0  0
   -4.4005    1.2604    1.8856 H   0  0  0  0  0  0  0  0  0  0  0  0
   -1.6908   -0.5560   -1.7376 H   0  0  0  0  0  0  0  0  0  0  0  0
   -5.3570   -1.6632   -1.3381 H   0  0  0  0  0  0  0  0  0  0  0  0
   -7.6355   -2.4800    0.1742 H   0  0  0  0  0  0  0  0  0  0  0  0
   -8.1353   -1.1597   -0.8890 H   0  0  0  0  0  0  0  0  0  0  0  0
   -7.4241   -2.6231   -1.5725 H   0  0  0  0  0  0  0  0  0  0  0  0
  4  8  2  0
  4  9  1  0
  8  7  1  0
 15  9  1  0
 16  5  1  0
  9 10  2  0
  7  6  1  0
  7  2  2  0
  5 14  1  0
  5  6  2  0
 14  3  2  0
  6 11  1  0
 10  2  1  0
  3  1  1  0
 11  1  2  0
 11 13  1  0
  1 17  1  0
 13 12  1  0
 22 17  1  0
 22 21  2  0
 17 18  2  0
 21 20  1  0
 18 19  1  0
 20 19  2  0
 20 23  1  0
 25 23  1  0
 25 26  1  0
 23 24  2  0
  2 27  1  0
  3 28  1  0
  4 29  1  0
  8 30  1  0
 10 31  1  0
 12 32  1  0
 12 33  1  0
 12 34  1  0
 13 35  1  0
 13 36  1  0
 15 37  1  0
 16 38  1  0
 16 39  1  0
 18 40  1  0
 19 41  1  0
 22 42  1  0
 25 43  1  0
 26 44  1  0
 26 45  1  0
 26 46  1  0
M  END
