
     RDKit          3D

 37 39  0  0  0  0  0  0  0  0999 V2000
    1.5460    0.0416   -0.1169 C   0  0  0  0  0  0  0  0  0  0  0  0
   -1.4626   -1.1500    0.1092 C   0  0  0  0  0  0  0  0  0  0  0  0
   -1.9687   -1.4119   -1.1557 C   0  0  0  0  0  0  0  0  0  0  0  0
   -4.8948    0.8568   -1.1540 C   0  0  0  0  0  0  0  0  0  0  0  0
   -2.0579   -0.2503    0.9755 C   0  0  0  0  0  0  0  0  0  0  0  0
    2.7014    0.4399   -0.9919 C   0  0  1  0  0  0  0  0  0  0  0  0
    2.9875    1.9586   -1.0556 C   0  0  0  0  0  0  0  0  0  0  0  0
    4.4640    2.0528   -0.6521 C   0  0  1  0  0  0  0  0  0  0  0  0
    4.5736    1.7726    0.8537 C   0  0  0  0  0  0  0  0  0  0  0  0
    4.0506   -0.1542   -0.5098 C   0  0  2  0  0  0  0  0  0  0  0  0
    0.9408    0.7619    0.6419 O   0  0  0  0  0  0  0  0  0  0  0  0
    1.2112   -1.2941   -0.2397 N   0  0  0  0  0  0  0  0  0  0  0  0
   -0.0069   -2.0230    0.6337 S   0  0  1  0  0  0  0  0  0  0  0  0
    0.1896   -1.7878    2.0462 O   0  0  0  0  0  0  0  0  0  0  0  0
   -0.0660   -3.3746    0.1149 O   0  0  0  0  0  0  0  0  0  0  0  0
   -3.1031   -0.7406   -1.5685 C   0  0  0  0  0  0  0  0  0  0  0  0
   -3.7233    0.1711   -0.7163 C   0  0  0  0  0  0  0  0  0  0  0  0
   -5.8307    1.4105   -1.5311 N   0  0  0  0  0  0  0  0  0  0  0  0
   -3.1994    0.4088    0.5549 C   0  0  0  0  0  0  0  0  0  0  0  0
   -3.9688    1.5278    1.6026 Cl  0  0  0  0  0  0  0  0  0  0  0  0
    4.3075    0.2471    0.9491 C   0  0  0  0  0  0  0  0  0  0  0  0
    5.0308    0.7611   -1.2504 C   0  0  0  0  0  0  0  0  0  0  0  0
   -1.4959   -2.1222   -1.8195 H   0  0  0  0  0  0  0  0  0  0  0  0
   -1.6539   -0.0605    1.9592 H   0  0  0  0  0  0  0  0  0  0  0  0
    2.4947    0.0528   -1.9947 H   0  0  0  0  0  0  0  0  0  0  0  0
    2.8311    2.3261   -2.0707 H   0  0  0  0  0  0  0  0  0  0  0  0
    2.3429    2.5401   -0.3968 H   0  0  0  0  0  0  0  0  0  0  0  0
    4.9418    2.9810   -0.9662 H   0  0  0  0  0  0  0  0  0  0  0  0
    5.5706    2.0189    1.2234 H   0  0  0  0  0  0  0  0  0  0  0  0
    3.8595    2.3616    1.4317 H   0  0  0  0  0  0  0  0  0  0  0  0
    4.1514   -1.2227   -0.7026 H   0  0  0  0  0  0  0  0  0  0  0  0
    1.6577   -1.8767   -0.9389 H   0  0  0  0  0  0  0  0  0  0  0  0
   -3.5154   -0.9220   -2.5508 H   0  0  0  0  0  0  0  0  0  0  0  0
    5.1871   -0.2814    1.3205 H   0  0  0  0  0  0  0  0  0  0  0  0
    3.4891   -0.0047    1.6260 H   0  0  0  0  0  0  0  0  0  0  0  0
    4.9383    0.7056   -2.3374 H   0  0  0  0  0  0  0  0  0  0  0  0
    6.0710    0.5721   -0.9761 H   0  0  0  0  0  0  0  0  0  0  0  0
 22  8  1  0
 22 10  1  0
  7  8  1  0
  7  6  1  0
  8  9  1  0
  6 10  1  0
  6  1  1  0
 10 21  1  0
 11  1  2  0
  9 21  1  0
  1 12  1  0
 13 12  1  6
 14 13  2  0
 13  2  1  0
 13 15  2  0
  5  2  1  0
  5 19  2  0
  2  3  2  0
 20 19  1  0
 19 17  1  0
  3 16  1  0
 17 16  2  0
 17  4  1  0
  4 18  3  0
  3 23  1  0
  5 24  1  0
  6 25  1  6
  7 26  1  0
  7 27  1  0
  8 28  1  1
  9 29  1  0
  9 30  1  0
 10 31  1  1
 12 32  1  0
 16 33  1  0
 21 34  1  0
 21 35  1  0
 22 36  1  0
 22 37  1  0
M  END
