
     RDKit          3D

 37 36  0  0  0  0  0  0  0  0999 V2000
   -0.5075   -0.0147    7.3526 N   0  0  0  0  0  0  0  0  0  0  0  0
    0.3758   -0.0651    6.1958 C   0  0  0  0  0  0  0  0  0  0  0  0
   -0.4185    0.0265    4.9021 C   0  0  0  0  0  0  0  0  0  0  0  0
    0.4745   -0.0219    3.6725 C   0  0  0  0  0  0  0  0  0  0  0  0
   -0.2987    0.0709    2.4489 N   0  0  0  0  0  0  0  0  0  0  0  0
    0.5243    0.0012    1.2565 C   0  0  0  0  0  0  0  0  0  0  0  0
   -0.3185    0.0724   -0.0070 C   0  0  0  0  0  0  0  0  0  0  0  0
    0.5312    0.0134   -1.2668 C   0  0  0  0  0  0  0  0  0  0  0  0
   -0.2873    0.0742   -2.4625 N   0  0  0  0  0  0  0  0  0  0  0  0
    0.4931    0.0075   -3.6835 C   0  0  0  0  0  0  0  0  0  0  0  0
   -0.3969    0.0326   -4.9161 C   0  0  0  0  0  0  0  0  0  0  0  0
    0.4039   -0.0148   -6.2085 C   0  0  0  0  0  0  0  0  0  0  0  0
   -0.4791   -0.0010   -7.3667 N   0  0  0  0  0  0  0  0  0  0  0  0
   -0.9361    0.9020    7.4011 H   0  0  0  0  0  0  0  0  0  0  0  0
    0.0421   -0.0996    8.1982 H   0  0  0  0  0  0  0  0  0  0  0  0
    1.1444    0.7217    6.1981 H   0  0  0  0  0  0  0  0  0  0  0  0
    0.9142   -1.0168    6.2184 H   0  0  0  0  0  0  0  0  0  0  0  0
   -1.1415   -0.7949    4.8682 H   0  0  0  0  0  0  0  0  0  0  0  0
   -0.9961    0.9568    4.8887 H   0  0  0  0  0  0  0  0  0  0  0  0
    1.1734    0.8209    3.6996 H   0  0  0  0  0  0  0  0  0  0  0  0
    1.0959   -0.9326    3.7090 H   0  0  0  0  0  0  0  0  0  0  0  0
   -0.9630   -0.6950    2.4278 H   0  0  0  0  0  0  0  0  0  0  0  0
    1.2218    0.8454    1.2731 H   0  0  0  0  0  0  0  0  0  0  0  0
    1.1480   -0.9080    1.2294 H   0  0  0  0  0  0  0  0  0  0  0  0
   -1.0324   -0.7598   -0.0131 H   0  0  0  0  0  0  0  0  0  0  0  0
   -0.9069    0.9939   -0.0044 H   0  0  0  0  0  0  0  0  0  0  0  0
    1.2177    0.8666   -1.2787 H   0  0  0  0  0  0  0  0  0  0  0  0
    1.1666   -0.8877   -1.2380 H   0  0  0  0  0  0  0  0  0  0  0  0
   -0.9357   -0.7055   -2.4501 H   0  0  0  0  0  0  0  0  0  0  0  0
    1.1662    0.8713   -3.7065 H   0  0  0  0  0  0  0  0  0  0  0  0
    1.1417   -0.8839   -3.7190 H   0  0  0  0  0  0  0  0  0  0  0  0
   -1.0818   -0.8230   -4.8850 H   0  0  0  0  0  0  0  0  0  0  0  0
   -1.0165    0.9336   -4.9032 H   0  0  0  0  0  0  0  0  0  0  0  0
    1.0493    0.8666   -6.2600 H   0  0  0  0  0  0  0  0  0  0  0  0
    1.0752   -0.8856   -6.1815 H   0  0  0  0  0  0  0  0  0  0  0  0
    0.0756    0.0066   -8.2131 H   0  0  0  0  0  0  0  0  0  0  0  0
   -1.0003   -0.8692   -7.3943 H   0  0  0  0  0  0  0  0  0  0  0  0
  1  2  1  0
  1 14  1  0
  1 15  1  0
  2  3  1  0
  2 16  1  0
  2 17  1  0
  3  4  1  0
  3 18  1  0
  3 19  1  0
  4  5  1  0
  4 20  1  0
  4 21  1  0
  5  6  1  0
  5 22  1  0
  6  7  1  0
  6 23  1  0
  6 24  1  0
  7  8  1  0
  7 25  1  0
  7 26  1  0
  8  9  1  0
  8 27  1  0
  8 28  1  0
  9 10  1  0
  9 29  1  0
 10 11  1  0
 10 30  1  0
 10 31  1  0
 11 12  1  0
 11 32  1  0
 11 33  1  0
 12 13  1  0
 12 34  1  0
 12 35  1  0
 13 36  1  0
 13 37  1  0
M  END
