
     RDKit          3D

 70 74  0  0  0  0  0  0  0  0999 V2000
   -5.4786   -0.6938   -0.0500 C   0  0  0  0  0  0  0  0  0  0  0  0
   -5.2684   -2.0711   -0.0835 C   0  0  0  0  0  0  0  0  0  0  0  0
   -4.1028   -2.5846    0.4956 C   0  0  0  0  0  0  0  0  0  0  0  0
   -7.3321   -2.7933   -1.2817 C   0  0  0  0  0  0  0  0  0  0  0  0
   -7.9772   -4.0443   -1.8226 C   0  0  0  0  0  0  0  0  0  0  0  0
    0.7955    3.4744   -1.2989 C   0  0  0  0  0  0  0  0  0  0  0  0
    1.4324    3.1067   -0.1188 C   0  0  0  0  0  0  0  0  0  0  0  0
    1.3515    3.9267    1.0001 C   0  0  0  0  0  0  0  0  0  0  0  0
    0.6086    5.0974    0.9484 C   0  0  0  0  0  0  0  0  0  0  0  0
   -0.0463    5.4699   -0.2169 C   0  0  0  0  0  0  0  0  0  0  0  0
    0.0660    4.6461   -1.3205 C   0  0  0  0  0  0  0  0  0  0  0  0
    0.5409    0.0677   -0.5326 C   0  0  0  0  0  0  0  0  0  0  0  0
   -0.0259    0.9167    2.1639 C   0  0  0  0  0  0  0  0  0  0  0  0
   -0.8147    0.5666   -0.0573 C   0  0  0  0  0  0  0  0  0  0  0  0
    2.9911   -0.1720   -0.0199 C   0  0  0  0  0  0  0  0  0  0  0  0
    3.4724    1.8606   -0.5465 C   0  0  0  0  0  0  0  0  0  0  0  0
    3.8571   -3.6786   -0.5293 C   0  0  0  0  0  0  0  0  0  0  0  0
    6.4437   -3.1348    0.7737 C   0  0  0  0  0  0  0  0  0  0  0  0
   -0.5570    4.9935   -2.4572 F   0  0  0  0  0  0  0  0  0  0  0  0
   -6.1386   -2.9972   -0.6687 N   0  0  0  0  0  0  0  0  0  0  0  0
   -7.8540   -1.6986   -1.4084 O   0  0  0  0  0  0  0  0  0  0  0  0
   -1.0134    0.2443    1.3430 N   0  0  0  0  0  0  0  0  0  0  0  0
    4.0926    2.8234   -0.9549 O   0  0  0  0  0  0  0  0  0  0  0  0
    2.1818    1.9118   -0.0757 N   0  0  0  0  0  0  0  0  0  0  0  0
   -3.1753   -1.7483    1.0854 C   0  0  0  0  0  0  0  0  0  0  0  0
    3.9534    0.5675   -0.4834 N   0  0  0  0  0  0  0  0  0  0  0  0
   -3.3747   -0.3696    1.1239 C   0  0  0  0  0  0  0  0  0  0  0  0
   -4.5320    0.1316    0.5468 C   0  0  0  0  0  0  0  0  0  0  0  0
    1.7153    0.5878    0.3107 C   0  0  1  0  0  0  0  0  0  0  0  0
    1.3798    0.4541    1.8053 C   0  0  0  0  0  0  0  0  0  0  0  0
    5.0861   -4.5362   -0.8138 C   0  0  0  0  0  0  0  0  0  0  0  0
    4.2626   -2.2651   -0.1284 C   0  0  2  0  0  0  0  0  0  0  0  0
    5.2149   -2.2786    1.0662 C   0  0  0  0  0  0  0  0  0  0  0  0
    6.0480   -4.5511    0.3695 C   0  0  0  0  0  0  0  0  0  0  0  0
   -6.3588   -0.2556   -0.4892 H   0  0  0  0  0  0  0  0  0  0  0  0
   -3.9216   -3.6535    0.4785 H   0  0  0  0  0  0  0  0  0  0  0  0
   -2.4023    0.3903    2.8631 H   0  0  0  0  0  0  0  0  0  0  0  0
   -2.6457    1.5862    1.5993 H   0  0  0  0  0  0  0  0  0  0  0  0
   -7.4596   -4.9625   -1.5533 H   0  0  0  0  0  0  0  0  0  0  0  0
   -9.0036   -4.1061   -1.4630 H   0  0  0  0  0  0  0  0  0  0  0  0
   -8.0179   -3.9815   -2.9105 H   0  0  0  0  0  0  0  0  0  0  0  0
    0.8596    2.8512   -2.1816 H   0  0  0  0  0  0  0  0  0  0  0  0
    1.8653    3.6441    1.9093 H   0  0  0  0  0  0  0  0  0  0  0  0
    0.5404    5.7305    1.8225 H   0  0  0  0  0  0  0  0  0  0  0  0
   -0.6277    6.3811   -0.2668 H   0  0  0  0  0  0  0  0  0  0  0  0
    0.5269   -1.0234   -0.4720 H   0  0  0  0  0  0  0  0  0  0  0  0
    0.6955    0.3228   -1.5827 H   0  0  0  0  0  0  0  0  0  0  0  0
   -0.1089    2.0114    2.0878 H   0  0  0  0  0  0  0  0  0  0  0  0
   -0.2075    0.6658    3.2114 H   0  0  0  0  0  0  0  0  0  0  0  0
   -0.9294    1.6469   -0.2411 H   0  0  0  0  0  0  0  0  0  0  0  0
   -1.5829    0.0690   -0.6521 H   0  0  0  0  0  0  0  0  0  0  0  0
    3.2756   -4.1322    0.2822 H   0  0  0  0  0  0  0  0  0  0  0  0
    7.0237   -2.6746   -0.0336 H   0  0  0  0  0  0  0  0  0  0  0  0
    7.0956   -3.1541    1.6495 H   0  0  0  0  0  0  0  0  0  0  0  0
   -5.8220   -3.9536   -0.6254 H   0  0  0  0  0  0  0  0  0  0  0  0
   -2.2747   -2.1716    1.5121 H   0  0  0  0  0  0  0  0  0  0  0  0
   -4.7095    1.2010    0.5498 H   0  0  0  0  0  0  0  0  0  0  0  0
    2.1205    0.9941    2.3980 H   0  0  0  0  0  0  0  0  0  0  0  0
    1.4585   -0.5995    2.0871 H   0  0  0  0  0  0  0  0  0  0  0  0
    4.7735   -5.5518   -1.0653 H   0  0  0  0  0  0  0  0  0  0  0  0
    5.6011   -4.1439   -1.6970 H   0  0  0  0  0  0  0  0  0  0  0  0
    4.7699   -1.7918   -0.9738 H   0  0  0  0  0  0  0  0  0  0  0  0
    4.6859   -2.6791    1.9377 H   0  0  0  0  0  0  0  0  0  0  0  0
    5.5090   -1.2555    1.3121 H   0  0  0  0  0  0  0  0  0  0  0  0
    6.9363   -5.1378    0.1239 H   0  0  0  0  0  0  0  0  0  0  0  0
    5.5685   -5.0495    1.2188 H   0  0  0  0  0  0  0  0  0  0  0  0
   -2.3643    0.5343    1.7784 C   0  0  0  0  0  0  0  0  0  0  0  0
    3.0706   -1.4786    0.1475 N   0  0  0  0  0  0  0  0  0  0  0  0
    3.2061   -3.6432   -1.4063 H   0  0  0  0  0  0  0  0  0  0  0  0
    2.2851   -1.9604    0.5583 H   0  0  0  0  0  0  0  0  0  0  0  0
  1  2  2  0
  1 28  1  0
  2  3  1  0
  2 20  1  0
  3 25  2  0
 67 22  1  0
 67 27  1  0
  4  5  1  0
  4 20  1  0
  4 21  2  0
  6  7  2  0
  6 11  1  0
  7  8  1  0
  7 24  1  0
  8  9  2  0
  9 10  1  0
 10 11  2  0
 11 19  1  0
 12 14  1  0
 12 29  1  0
 13 22  1  0
 13 30  1  0
 14 22  1  0
 15 26  2  0
 15 68  1  0
 29 15  1  1
 16 23  2  0
 16 24  1  0
 16 26  1  0
 17 31  1  0
 17 32  1  0
 18 33  1  0
 18 34  1  0
 24 29  1  0
 25 27  1  0
 27 28  2  0
 68 32  1  0
 29 30  1  0
 31 34  1  0
 32 33  1  0
  1 35  1  0
  3 36  1  0
 67 37  1  0
 67 38  1  0
  5 39  1  0
  5 40  1  0
  5 41  1  0
  6 42  1  0
  8 43  1  0
  9 44  1  0
 10 45  1  0
 12 46  1  0
 12 47  1  0
 13 48  1  0
 13 49  1  0
 14 50  1  0
 14 51  1  0
 17 69  1  0
 17 52  1  0
 18 53  1  0
 18 54  1  0
 20 55  1  0
 25 56  1  0
 68 70  1  0
 28 57  1  0
 30 58  1  0
 30 59  1  0
 31 60  1  0
 31 61  1  0
 32 62  1  6
 33 63  1  0
 33 64  1  0
 34 65  1  0
 34 66  1  0
M  END
