
     RDKit          3D

 17 18  0  0  0  0  0  0  0  0999 V2000
    2.5793    0.3275   -0.0005 N   0  0  0  0  0  0  0  0  0  0  0  0
    2.5619   -1.0306   -0.0003 C   0  0  0  0  0  0  0  0  0  0  0  0
   -1.0201    0.9758    0.0013 C   0  0  0  0  0  0  0  0  0  0  0  0
    0.2172    0.3273    0.0003 C   0  0  0  0  0  0  0  0  0  0  0  0
    1.4496    1.1117   -0.0004 C   0  0  0  0  0  0  0  0  0  0  0  0
    1.5000   -1.7458   -0.0002 N   0  0  0  0  0  0  0  0  0  0  0  0
   -2.1558    0.2094    0.0022 C   0  0  0  0  0  0  0  0  0  0  0  0
    1.5109    2.3269   -0.0010 O   0  0  0  0  0  0  0  0  0  0  0  0
   -2.1128   -1.1828    0.0016 C   0  0  0  0  0  0  0  0  0  0  0  0
   -0.8916   -1.8165    0.0007 C   0  0  0  0  0  0  0  0  0  0  0  0
    0.2978   -1.0738    0.0002 C   0  0  0  0  0  0  0  0  0  0  0  0
   -3.3543    0.8088    0.0034 F   0  0  0  0  0  0  0  0  0  0  0  0
    3.4764    0.7957    0.0010 H   0  0  0  0  0  0  0  0  0  0  0  0
    3.5365   -1.5023   -0.0001 H   0  0  0  0  0  0  0  0  0  0  0  0
   -1.0782    2.0565    0.0013 H   0  0  0  0  0  0  0  0  0  0  0  0
   -3.0317   -1.7544    0.0014 H   0  0  0  0  0  0  0  0  0  0  0  0
   -0.8356   -2.8966    0.0003 H   0  0  0  0  0  0  0  0  0  0  0  0
  6  2  2  0
  6 11  1  0
  2  1  1  0
 10 11  1  0
 10  9  2  0
 11  4  2  0
  9  7  1  0
  1  5  1  0
  4  5  1  0
  4  3  1  0
  5  8  2  0
  7  3  2  0
  7 12  1  0
  1 13  1  0
  2 14  1  0
  3 15  1  0
  9 16  1  0
 10 17  1  0
M  END
