
     RDKit          3D

 27 28  0  0  0  0  0  0  0  0999 V2000
   -2.7533   -1.5457   -0.5032 O   0  0  0  0  0  0  0  0  0  0  0  0
   -3.7664    0.7555   -0.9488 F   0  0  0  0  0  0  0  0  0  0  0  0
   -1.7590    1.4890   -1.1478 F   0  0  0  0  0  0  0  0  0  0  0  0
   -2.7375    1.4964    0.7830 F   0  0  0  0  0  0  0  0  0  0  0  0
    3.8880   -0.3080   -0.7422 C   0  0  0  0  0  0  0  0  0  0  0  0
    2.9839   -1.3528   -0.7061 C   0  0  0  0  0  0  0  0  0  0  0  0
    2.2622    1.0956    0.3334 C   0  0  0  0  0  0  0  0  0  0  0  0
    0.7471   -2.3641   -0.1311 C   0  0  0  0  0  0  0  0  0  0  0  0
   -0.4006   -2.1054    0.8297 C   0  0  0  0  0  0  0  0  0  0  0  0
    0.0080    0.2625    0.9989 C   0  0  0  0  0  0  0  0  0  0  0  0
   -2.0721   -0.6283   -0.0887 C   0  0  0  0  0  0  0  0  0  0  0  0
    3.5268    0.9313   -0.2150 C   0  0  0  0  0  0  0  0  0  0  0  0
    1.7118   -1.2074   -0.1544 C   0  0  0  0  0  0  0  0  0  0  0  0
    1.3598    0.0356    0.3637 C   0  0  0  0  0  0  0  0  0  0  0  0
   -0.9331   -0.7685    0.5972 N   0  0  0  0  0  0  0  0  0  0  0  0
   -2.5862    0.8040   -0.3507 C   0  0  1  0  0  0  0  0  0  0  0  0
    4.0799    2.7288    0.1328 H   0  0  0  0  0  0  0  0  0  0  0  0
    4.8718   -0.4465   -1.1732 H   0  0  0  0  0  0  0  0  0  0  0  0
    3.2768   -2.3135   -1.1135 H   0  0  0  0  0  0  0  0  0  0  0  0
    1.9684    2.0596    0.7376 H   0  0  0  0  0  0  0  0  0  0  0  0
    1.2607   -3.2807    0.1667 H   0  0  0  0  0  0  0  0  0  0  0  0
    0.3498   -2.5448   -1.1344 H   0  0  0  0  0  0  0  0  0  0  0  0
   -1.1859   -2.8471    0.7208 H   0  0  0  0  0  0  0  0  0  0  0  0
   -0.0502   -2.1421    1.8638 H   0  0  0  0  0  0  0  0  0  0  0  0
    0.1044    0.2249    2.0882 H   0  0  0  0  0  0  0  0  0  0  0  0
   -0.3404    1.2618    0.7620 H   0  0  0  0  0  0  0  0  0  0  0  0
    4.4349    1.9271   -0.2672 O   0  0  0  0  0  0  0  0  0  0  0  0
  1 11  2  0
 27 12  1  0
 16  2  1  6
  3 16  1  0
  4 16  1  0
  5  6  2  0
  5 12  1  0
  6 13  1  0
  7 12  2  0
  7 14  1  0
  8  9  1  0
  8 13  1  0
  9 15  1  0
 10 14  1  0
 10 15  1  0
 11 15  1  0
 11 16  1  0
 13 14  2  0
 27 17  1  0
  5 18  1  0
  6 19  1  0
  7 20  1  0
  8 21  1  0
  8 22  1  0
  9 23  1  0
  9 24  1  0
 10 25  1  0
 10 26  1  0
M  END
