
     RDKit          3D

  5  4  0  0  0  0  0  0  0  0999 V2000
    0.7845   -0.0011    0.0334 C   0  0  0  0  0  0  0  0  0  0  0  0
   -0.5985   -0.0156    0.0667 F   0  0  0  0  0  0  0  0  0  0  0  0
    1.1793   -0.0055    1.0558 H   0  0  0  0  0  0  0  0  0  0  0  0
    1.1511   -0.8867   -0.4985 H   0  0  0  0  0  0  0  0  0  0  0  0
    1.1326    0.9013   -0.4829 H   0  0  0  0  0  0  0  0  0  0  0  0
  1  2  1  0
  1  3  1  0
  1  4  1  0
  1  5  1  0
M  END
