
     RDKit          3D

 40 42  0  0  0  0  0  0  0  0999 V2000
    3.7991    0.0729    0.0677 C   0  0  0  0  0  0  0  0  0  0  0  0
    6.1237    0.4381    0.6281 C   0  0  0  0  0  0  0  0  0  0  0  0
    1.3374   -0.0069   -0.3423 N   0  0  0  0  0  0  0  0  0  0  0  0
    6.4783    0.3317   -0.7117 C   0  0  0  0  0  0  0  0  0  0  0  0
   -3.1317    1.0956   -0.2137 C   0  0  2  0  0  0  0  0  0  0  0  0
   -4.0024   -0.1348    0.0469 C   0  0  1  0  0  0  0  0  0  0  0  0
   -5.2448    0.0665   -0.5794 O   0  0  0  0  0  0  0  0  0  0  0  0
   -1.8498    0.9052    0.3507 O   0  0  0  0  0  0  0  0  0  0  0  0
   -1.1469   -0.1816   -0.2050 C   0  0  2  0  0  0  0  0  0  0  0  0
   -1.8920   -1.4842    0.0787 C   0  0  2  0  0  0  0  0  0  0  0  0
   -1.1642   -2.5303   -0.5175 O   0  0  0  0  0  0  0  0  0  0  0  0
   -3.3026   -1.3781   -0.4908 C   0  0  1  0  0  0  0  0  0  0  0  0
   -4.0949   -2.4949   -0.1519 O   0  0  0  0  0  0  0  0  0  0  0  0
    0.2205   -0.1977    0.3861 C   0  0  0  0  0  0  0  0  0  0  0  0
    0.5085   -0.3861    1.6503 N   0  0  0  0  0  0  0  0  0  0  0  0
    1.8637   -0.3069    1.7355 C   0  0  0  0  0  0  0  0  0  0  0  0
    2.4155   -0.0701    0.4986 C   0  0  0  0  0  0  0  0  0  0  0  0
    4.7992    0.3153    1.0139 C   0  0  0  0  0  0  0  0  0  0  0  0
    5.4925    0.0972   -1.6602 C   0  0  0  0  0  0  0  0  0  0  0  0
    4.1661   -0.0355   -1.2758 C   0  0  0  0  0  0  0  0  0  0  0  0
    6.8822    0.6252    1.3771 H   0  0  0  0  0  0  0  0  0  0  0  0
    1.3605    0.1786   -1.3333 H   0  0  0  0  0  0  0  0  0  0  0  0
    7.5131    0.4322   -1.0116 H   0  0  0  0  0  0  0  0  0  0  0  0
   -3.3225    4.2408    0.4037 H   0  0  0  0  0  0  0  0  0  0  0  0
   -4.1222   -0.2477    1.1369 H   0  0  0  0  0  0  0  0  0  0  0  0
   -5.7808   -0.7210   -0.4375 H   0  0  0  0  0  0  0  0  0  0  0  0
   -1.0545   -0.0619   -1.2970 H   0  0  0  0  0  0  0  0  0  0  0  0
   -1.9510   -1.6110    1.1681 H   0  0  0  0  0  0  0  0  0  0  0  0
   -1.3581   -3.3478   -0.0507 H   0  0  0  0  0  0  0  0  0  0  0  0
   -3.2233   -1.2765   -1.5844 H   0  0  0  0  0  0  0  0  0  0  0  0
   -3.9014   -3.2118   -0.7632 H   0  0  0  0  0  0  0  0  0  0  0  0
    2.3814   -0.4390    2.6738 H   0  0  0  0  0  0  0  0  0  0  0  0
    4.5393    0.4196    2.0598 H   0  0  0  0  0  0  0  0  0  0  0  0
    5.7536    0.0103   -2.7069 H   0  0  0  0  0  0  0  0  0  0  0  0
    3.4226   -0.2363   -2.0374 H   0  0  0  0  0  0  0  0  0  0  0  0
   -3.0437    1.2365   -1.3038 H   0  0  0  0  0  0  0  0  0  0  0  0
   -3.7207    2.3480    0.3997 C   0  0  0  0  0  0  0  0  0  0  0  0
   -3.7758    2.2187    1.4896 H   0  0  0  0  0  0  0  0  0  0  0  0
   -2.9162    3.4474    0.0438 O   0  0  0  0  0  0  0  0  0  0  0  0
   -4.7470    2.4631    0.0363 H   0  0  0  0  0  0  0  0  0  0  0  0
 13 12  1  0
  7  6  1  0
 12  6  1  0
 12 10  1  0
  6  5  1  0
 11 10  1  0
 10  9  1  0
 39 37  1  0
  5 37  1  0
  5  8  1  0
  9  8  1  0
  9 14  1  0
 15 14  2  0
 15 16  1  0
 14  3  1  0
 16 17  2  0
  3 17  1  0
 17  1  1  0
  1 18  1  0
  1 20  2  0
 18  2  2  0
 20 19  1  0
  2  4  1  0
 19  4  2  0
  2 21  1  0
  3 22  1  0
  4 23  1  0
 39 24  1  0
 37 38  1  0
 37 40  1  0
  5 36  1  6
  6 25  1  1
  7 26  1  0
  9 27  1  6
 10 28  1  1
 11 29  1  0
 12 30  1  6
 13 31  1  0
 16 32  1  0
 18 33  1  0
 19 34  1  0
 20 35  1  0
M  END
