
     RDKit          3D

 28 29  0  0  0  0  0  0  0  0999 V2000
   -1.6559   -0.5512   -1.2349 C   0  0  0  0  0  0  0  0  0  0  0  0
   -1.3561   -0.1680    0.0357 C   0  0  0  0  0  0  0  0  0  0  0  0
   -2.5183   -0.1673    0.9052 C   0  0  0  0  0  0  0  0  0  0  0  0
   -0.0435    0.3543    0.5281 C   0  0  2  0  0  0  0  0  0  0  0  0
    1.4225   -0.4635   -0.2502 S   0  0  0  0  0  0  0  0  0  0  0  0
   -2.5933    0.3245    2.0139 O   0  0  0  0  0  0  0  0  0  0  0  0
   -0.9706   -0.5506   -2.3931 N   0  0  0  0  0  0  0  0  0  0  0  0
    0.2927   -0.1014   -2.7310 C   0  0  0  0  0  0  0  0  0  0  0  0
    0.1861    0.1419    1.9848 C   0  0  0  0  0  0  0  0  0  0  0  0
    1.3514    0.0087   -1.9157 C   0  0  0  0  0  0  0  0  0  0  0  0
    0.3971    0.2133   -4.1850 C   0  0  0  0  0  0  0  0  0  0  0  0
    1.5688    0.7018   -4.5379 O   0  0  0  0  0  0  0  0  0  0  0  0
    0.5462    1.0457    2.9482 C   0  0  0  0  0  0  0  0  0  0  0  0
   -0.5155    0.0130   -4.9504 O   0  0  0  0  0  0  0  0  0  0  0  0
    0.1249   -1.0760    2.5568 N   0  0  0  0  0  0  0  0  0  0  0  0
    0.4066   -0.9669    3.8092 N   0  0  0  0  0  0  0  0  0  0  0  0
    0.6634    0.3044    4.0605 N   0  0  0  0  0  0  0  0  0  0  0  0
    0.9701    0.7466    5.4029 C   0  0  0  0  0  0  0  0  0  0  0  0
   -2.6679   -0.9019   -1.3999 H   0  0  0  0  0  0  0  0  0  0  0  0
   -3.4051   -0.6559    0.4589 H   0  0  0  0  0  0  0  0  0  0  0  0
    0.0687    1.4164    0.3034 H   0  0  0  0  0  0  0  0  0  0  0  0
   -1.5308   -0.8029   -3.1952 H   0  0  0  0  0  0  0  0  0  0  0  0
    2.2866    0.3730   -2.3169 H   0  0  0  0  0  0  0  0  0  0  0  0
    1.5908    0.8620   -5.4934 H   0  0  0  0  0  0  0  0  0  0  0  0
    0.7107    2.1095    2.9254 H   0  0  0  0  0  0  0  0  0  0  0  0
    0.0748    1.1200    5.8956 H   0  0  0  0  0  0  0  0  0  0  0  0
    1.3683   -0.0933    5.9640 H   0  0  0  0  0  0  0  0  0  0  0  0
    1.7145    1.5361    5.3626 H   0  0  0  0  0  0  0  0  0  0  0  0
  1  2  2  0
  1  7  1  0
  1 19  1  0
  2  3  1  0
  2  4  1  0
  3  6  2  0
  3 20  1  0
  4  5  1  0
  4  9  1  0
  4 21  1  1
  5 10  1  0
  7  8  1  0
  7 22  1  0
  8 10  2  0
  8 11  1  0
  9 13  2  0
  9 15  1  0
 10 23  1  0
 11 12  1  0
 11 14  2  0
 12 24  1  0
 13 17  1  0
 13 25  1  0
 15 16  2  0
 16 17  1  0
 17 18  1  0
 18 26  1  0
 18 27  1  0
 18 28  1  0
M  END
