
     RDKit          3D

 26 27  0  0  0  0  0  0  0  0999 V2000
   -0.8803    1.4726   -0.8700 N   0  0  0  0  0  0  0  0  0  0  0  0
    0.2279    1.7447    0.0361 C   0  0  0  0  0  0  0  0  0  0  0  0
    1.3467    0.7688   -0.2549 C   0  0  1  0  0  0  0  0  0  0  0  0
    2.5191    0.7515    0.7147 C   0  0  0  0  0  0  0  0  0  0  0  0
    3.0710   -0.6844    0.5864 C   0  0  0  0  0  0  0  0  0  0  0  0
    2.0096   -1.4411   -0.2315 C   0  0  0  0  0  0  0  0  0  0  0  0
    0.8406   -0.5888   -0.1525 N   0  0  0  0  0  0  0  0  0  0  0  0
   -0.2005   -0.8438   -1.1129 C   0  0  0  0  0  0  0  0  0  0  0  0
   -1.3590    0.1110   -0.8299 C   0  0  1  0  0  0  0  0  0  0  0  0
   -2.0852   -0.2404    0.4663 C   0  0  0  0  0  0  0  0  0  0  0  0
   -2.4257    0.5632    1.2984 O   0  0  0  0  0  0  0  0  0  0  0  0
    0.5711    2.7667   -0.1379 H   0  0  0  0  0  0  0  0  0  0  0  0
   -0.0421    1.6677    1.0979 H   0  0  0  0  0  0  0  0  0  0  0  0
    1.7202    0.9638   -1.2792 H   0  0  0  0  0  0  0  0  0  0  0  0
    3.2613    1.5137    0.4789 H   0  0  0  0  0  0  0  0  0  0  0  0
    2.1652    0.9409    1.7307 H   0  0  0  0  0  0  0  0  0  0  0  0
    4.0350   -0.7029    0.0789 H   0  0  0  0  0  0  0  0  0  0  0  0
    3.2186   -1.1370    1.5668 H   0  0  0  0  0  0  0  0  0  0  0  0
    2.3504   -1.5659   -1.2721 H   0  0  0  0  0  0  0  0  0  0  0  0
    1.7935   -2.4379    0.1586 H   0  0  0  0  0  0  0  0  0  0  0  0
    0.1415   -0.6751   -2.1481 H   0  0  0  0  0  0  0  0  0  0  0  0
   -0.5277   -1.8817   -1.0497 H   0  0  0  0  0  0  0  0  0  0  0  0
   -2.1010   -0.0152   -1.6279 H   0  0  0  0  0  0  0  0  0  0  0  0
   -2.3729   -1.5340    0.5543 O   0  0  0  0  0  0  0  0  0  0  0  0
   -2.8781   -1.7045    1.3634 H   0  0  0  0  0  0  0  0  0  0  0  0
   -1.6382    2.1215   -0.7084 H   0  0  0  0  0  0  0  0  0  0  0  0
  5  6  1  0
  5  4  1  0
  6  7  1  0
  4  3  1  0
  7  3  1  0
  7  8  1  0
  3  2  1  0
  8  9  1  0
  2  1  1  0
  9 10  1  0
  9  1  1  0
 10 11  2  0
  2 12  1  0
  2 13  1  0
  3 14  1  6
  4 15  1  0
  4 16  1  0
  5 17  1  0
  5 18  1  0
  6 19  1  0
  6 20  1  0
  8 21  1  0
  8 22  1  0
  9 23  1  6
 10 24  1  0
 24 25  1  0
  1 26  1  0
M  END
