
     RDKit          3D

 26 27  0  0  0  0  0  0  0  0999 V2000
    1.7008    1.0166   -0.1901 C   0  0  0  0  0  0  0  0  0  0  0  0
   -2.5470   -0.1055   -1.1739 C   0  0  0  0  0  0  0  0  0  0  0  0
   -3.6989    0.6691   -1.1764 C   0  0  0  0  0  0  0  0  0  0  0  0
   -4.2893    1.0542    0.0208 C   0  0  0  0  0  0  0  0  0  0  0  0
   -3.7245    0.6581    1.2257 C   0  0  0  0  0  0  0  0  0  0  0  0
    0.3371   -0.7841   -0.0326 C   0  0  0  0  0  0  0  0  0  0  0  0
   -1.9953   -0.4932    0.0371 C   0  0  0  0  0  0  0  0  0  0  0  0
   -2.5707   -0.1146    1.2391 C   0  0  0  0  0  0  0  0  0  0  0  0
    1.4145   -1.6742   -0.0289 C   0  0  0  0  0  0  0  0  0  0  0  0
    2.6789   -1.1377   -0.1152 C   0  0  0  0  0  0  0  0  0  0  0  0
    2.8480    0.2477   -0.2062 C   0  0  0  0  0  0  0  0  0  0  0  0
    4.9484    0.5113    0.8475 O   0  0  0  0  0  0  0  0  0  0  0  0
    4.2091    0.8658   -0.3016 C   0  0  0  0  0  0  0  0  0  0  0  0
    0.4668    0.5163   -0.1091 N   0  0  0  0  0  0  0  0  0  0  0  0
   -0.8974   -1.3249    0.0528 O   0  0  0  0  0  0  0  0  0  0  0  0
    1.7711    2.0982   -0.2457 H   0  0  0  0  0  0  0  0  0  0  0  0
   -4.1362    0.9694   -2.1195 H   0  0  0  0  0  0  0  0  0  0  0  0
   -5.1880    1.6566    0.0139 H   0  0  0  0  0  0  0  0  0  0  0  0
   -4.1811    0.9489    2.1626 H   0  0  0  0  0  0  0  0  0  0  0  0
   -2.1276   -0.4265    2.1763 H   0  0  0  0  0  0  0  0  0  0  0  0
    1.2537   -2.7417    0.0373 H   0  0  0  0  0  0  0  0  0  0  0  0
    3.5381   -1.7968   -0.1181 H   0  0  0  0  0  0  0  0  0  0  0  0
    5.8663    0.7550    0.6955 H   0  0  0  0  0  0  0  0  0  0  0  0
    4.7036    0.5114   -1.2139 H   0  0  0  0  0  0  0  0  0  0  0  0
    4.1046    1.9536   -0.4014 H   0  0  0  0  0  0  0  0  0  0  0  0
   -2.0870   -0.4105   -2.1052 H   0  0  0  0  0  0  0  0  0  0  0  0
 13 12  1  0
 13 11  1  0
 11  1  2  0
 11 10  1  0
  1 14  1  0
 10  9  2  0
 14  6  2  0
  9  6  1  0
  6 15  1  0
 15  7  1  0
  2  7  2  0
  2  3  1  0
  7  8  1  0
  3  4  2  0
  8  5  2  0
  4  5  1  0
  1 16  1  0
  2 26  1  0
  3 17  1  0
  4 18  1  0
  5 19  1  0
  8 20  1  0
  9 21  1  0
 10 22  1  0
 12 23  1  0
 13 24  1  0
 13 25  1  0
M  END
