
     RDKit          3D

 42 44  0  0  0  0  0  0  0  0999 V2000
    2.1904   -2.0255    0.5769 O   0  0  0  0  0  0  0  0  0  0  0  0
    1.7005   -0.9769    0.1774 C   0  0  0  0  0  0  0  0  0  0  0  0
    2.4550    0.3053    0.1704 C   0  0  0  0  0  0  0  0  0  0  0  0
    3.8079    0.3990    0.5988 C   0  0  0  0  0  0  0  0  0  0  0  0
    4.5250   -0.6355    1.0445 N   0  0  0  0  0  0  0  0  0  0  0  0
    4.4228    1.5910    0.5670 N   0  0  0  0  0  0  0  0  0  0  0  0
    3.7442    2.6357    0.1445 C   0  0  0  0  0  0  0  0  0  0  0  0
    2.4183    2.5479   -0.2691 C   0  0  0  0  0  0  0  0  0  0  0  0
    1.8066    1.3803   -0.2463 N   0  0  0  0  0  0  0  0  0  0  0  0
    0.4379   -0.8597   -0.2854 N   0  0  0  0  0  0  0  0  0  0  0  0
   -0.5589   -1.8313   -0.3274 C   0  0  0  0  0  0  0  0  0  0  0  0
   -0.3155   -3.1859   -0.5250 C   0  0  0  0  0  0  0  0  0  0  0  0
   -1.2802   -4.0909   -0.6515 N   0  0  0  0  0  0  0  0  0  0  0  0
   -2.5358   -3.6699   -0.6083 C   0  0  0  0  0  0  0  0  0  0  0  0
   -2.8913   -2.3449   -0.4141 C   0  0  0  0  0  0  0  0  0  0  0  0
   -1.8952   -1.3897   -0.2460 C   0  0  0  0  0  0  0  0  0  0  0  0
   -2.1454   -0.0323   -0.0471 N   0  0  0  0  0  0  0  0  0  0  0  0
   -1.8248    0.4770    1.2899 C   0  0  0  0  0  0  0  0  0  0  0  0
   -1.7169    1.9906    1.2616 C   0  0  0  0  0  0  0  0  0  0  0  0
   -2.9906    2.6110    0.7033 C   0  0  0  0  0  0  0  0  0  0  0  0
   -3.4123    0.4863   -0.5315 C   0  0  0  0  0  0  0  0  0  0  0  0
   -3.3436    2.0063   -0.6491 C   0  0  1  0  0  0  0  0  0  0  0  0
   -4.6368    2.4971   -1.0983 N   0  0  0  0  0  0  0  0  0  0  0  0
    4.1339   -1.5610    1.0718 H   0  0  0  0  0  0  0  0  0  0  0  0
    5.4876   -0.4896    1.2963 H   0  0  0  0  0  0  0  0  0  0  0  0
    4.2624    3.5878    0.1302 H   0  0  0  0  0  0  0  0  0  0  0  0
    1.8677    3.4135   -0.6117 H   0  0  0  0  0  0  0  0  0  0  0  0
    0.1442    0.0801   -0.5315 H   0  0  0  0  0  0  0  0  0  0  0  0
    0.6992   -3.5507   -0.6052 H   0  0  0  0  0  0  0  0  0  0  0  0
   -3.3077   -4.4219   -0.7275 H   0  0  0  0  0  0  0  0  0  0  0  0
   -3.9373   -2.0724   -0.3758 H   0  0  0  0  0  0  0  0  0  0  0  0
   -2.6090    0.1742    1.9998 H   0  0  0  0  0  0  0  0  0  0  0  0
   -0.8935    0.0353    1.6419 H   0  0  0  0  0  0  0  0  0  0  0  0
   -1.5299    2.3521    2.2747 H   0  0  0  0  0  0  0  0  0  0  0  0
   -0.8531    2.2806    0.6562 H   0  0  0  0  0  0  0  0  0  0  0  0
   -3.8218    2.4313    1.3940 H   0  0  0  0  0  0  0  0  0  0  0  0
   -2.8795    3.6950    0.6128 H   0  0  0  0  0  0  0  0  0  0  0  0
   -3.6205    0.0499   -1.5113 H   0  0  0  0  0  0  0  0  0  0  0  0
   -4.2488    0.2230    0.1341 H   0  0  0  0  0  0  0  0  0  0  0  0
   -2.5288    2.2413   -1.3516 H   0  0  0  0  0  0  0  0  0  0  0  0
   -4.6152    3.5089   -1.1356 H   0  0  0  0  0  0  0  0  0  0  0  0
   -4.8023    2.1951   -2.0511 H   0  0  0  0  0  0  0  0  0  0  0  0
 23 22  1  0
 20 22  1  0
 20 19  1  0
 22 21  1  0
 19 18  1  0
 21 17  1  0
 18 17  1  0
 17 16  1  0
 15 16  2  0
 15 14  1  0
 16 11  1  0
  8  9  2  0
  8  7  1  0
  9  3  1  0
 14 13  2  0
 11 10  1  0
 11 12  2  0
  7  6  2  0
 10  2  1  0
  3  2  1  0
  3  4  2  0
 13 12  1  0
  2  1  2  0
  6  4  1  0
  4  5  1  0
  5 24  1  0
  5 25  1  0
  7 26  1  0
  8 27  1  0
 10 28  1  0
 12 29  1  0
 14 30  1  0
 15 31  1  0
 18 32  1  0
 18 33  1  0
 19 34  1  0
 19 35  1  0
 20 36  1  0
 20 37  1  0
 21 38  1  0
 21 39  1  0
 22 40  1  6
 23 41  1  0
 23 42  1  0
M  END
