
     RDKit          3D

 63 67  0  0  0  0  0  0  0  0999 V2000
   -2.3778   -1.2790   -0.4731 C   0  0  0  0  0  0  0  0  0  0  0  0
    3.5331   -1.9144   -0.3549 C   0  0  0  0  0  0  0  0  0  0  0  0
    6.5926    0.1675    0.3256 C   0  0  0  0  0  0  0  0  0  0  0  0
    7.5244   -0.6846    0.9264 C   0  0  0  0  0  0  0  0  0  0  0  0
    8.8375   -0.2755    1.0727 C   0  0  0  0  0  0  0  0  0  0  0  0
    8.3356    1.8274    0.0336 C   0  0  0  0  0  0  0  0  0  0  0  0
    9.9614    3.5150   -0.3458 C   0  0  0  0  0  0  0  0  0  0  0  0
    4.1391    0.7011    0.3555 C   0  0  0  0  0  0  0  0  0  0  0  0
  -11.2635    1.7452   -0.2155 C   0  0  0  0  0  0  0  0  0  0  0  0
   -8.7813    1.7230   -0.0736 N   0  0  0  0  0  0  0  0  0  0  0  0
   -7.6247    2.4010    0.4686 C   0  0  0  0  0  0  0  0  0  0  0  0
   -6.3402    1.9281   -0.1840 C   0  0  0  0  0  0  0  0  0  0  0  0
   -6.1936    0.4856   -0.0915 N   0  0  0  0  0  0  0  0  0  0  0  0
   -4.9573   -0.0849   -0.2503 C   0  0  0  0  0  0  0  0  0  0  0  0
   -4.7886   -1.4839   -0.3362 C   0  0  0  0  0  0  0  0  0  0  0  0
   -3.5398   -2.0527   -0.4437 C   0  0  0  0  0  0  0  0  0  0  0  0
   -1.0801   -1.9663   -0.5876 C   0  0  0  0  0  0  0  0  0  0  0  0
   -0.9845   -3.1472   -0.8943 O   0  0  0  0  0  0  0  0  0  0  0  0
    0.0316   -1.2205   -0.3184 N   0  0  0  0  0  0  0  0  0  0  0  0
    1.3299   -1.6693   -0.3868 C   0  0  0  0  0  0  0  0  0  0  0  0
    1.7148   -2.9097   -0.7024 N   0  0  0  0  0  0  0  0  0  0  0  0
    3.0370   -3.1019   -0.6974 N   0  0  0  0  0  0  0  0  0  0  0  0
    4.8888   -1.5462   -0.1992 C   0  0  0  0  0  0  0  0  0  0  0  0
    5.1859   -0.2536    0.1526 C   0  0  0  0  0  0  0  0  0  0  0  0
    9.2592    0.9743    0.6323 C   0  0  0  0  0  0  0  0  0  0  0  0
    8.6285    3.0537   -0.4396 O   0  0  0  0  0  0  0  0  0  0  0  0
    7.0090    1.4192   -0.1125 C   0  0  0  0  0  0  0  0  0  0  0  0
    2.8221    0.3700    0.2150 C   0  0  0  0  0  0  0  0  0  0  0  0
    2.5061   -0.9549   -0.1456 C   0  0  0  0  0  0  0  0  0  0  0  0
   -2.5357    0.1061   -0.4191 C   0  0  0  0  0  0  0  0  0  0  0  0
   -3.7812    0.6908   -0.3202 C   0  0  0  0  0  0  0  0  0  0  0  0
   -7.3878   -0.2380   -0.5001 C   0  0  0  0  0  0  0  0  0  0  0  0
   -8.6343    0.3044    0.1703 C   0  0  0  0  0  0  0  0  0  0  0  0
    7.2165   -1.6528    1.2989 H   0  0  0  0  0  0  0  0  0  0  0  0
    9.5543   -0.9340    1.5461 H   0  0  0  0  0  0  0  0  0  0  0  0
    9.9803    4.4999   -0.8059 H   0  0  0  0  0  0  0  0  0  0  0  0
   10.2903    3.6063    0.6927 H   0  0  0  0  0  0  0  0  0  0  0  0
   10.6585    2.8636   -0.8793 H   0  0  0  0  0  0  0  0  0  0  0  0
    4.4030    1.7076    0.6519 H   0  0  0  0  0  0  0  0  0  0  0  0
  -11.2114    1.9027   -1.2933 H   0  0  0  0  0  0  0  0  0  0  0  0
  -11.4253    0.6823   -0.0359 H   0  0  0  0  0  0  0  0  0  0  0  0
  -12.1395    2.2733    0.1612 H   0  0  0  0  0  0  0  0  0  0  0  0
   -9.9722    3.3548    0.3406 H   0  0  0  0  0  0  0  0  0  0  0  0
  -10.0872    2.0923    1.5566 H   0  0  0  0  0  0  0  0  0  0  0  0
   -7.7153    3.4748    0.2912 H   0  0  0  0  0  0  0  0  0  0  0  0
   -7.5459    2.2607    1.5609 H   0  0  0  0  0  0  0  0  0  0  0  0
   -6.3118    2.2540   -1.2324 H   0  0  0  0  0  0  0  0  0  0  0  0
   -5.5207    2.4200    0.3358 H   0  0  0  0  0  0  0  0  0  0  0  0
   -5.6364   -2.1511   -0.3087 H   0  0  0  0  0  0  0  0  0  0  0  0
   -3.4679   -3.1309   -0.4970 H   0  0  0  0  0  0  0  0  0  0  0  0
   -0.0779   -0.2760    0.0155 H   0  0  0  0  0  0  0  0  0  0  0  0
    1.0893   -3.6680   -0.9329 H   0  0  0  0  0  0  0  0  0  0  0  0
    5.6696   -2.2750   -0.3780 H   0  0  0  0  0  0  0  0  0  0  0  0
   10.2941    1.2589    0.7642 H   0  0  0  0  0  0  0  0  0  0  0  0
    6.3100    2.0905   -0.5975 H   0  0  0  0  0  0  0  0  0  0  0  0
    2.0507    1.1109    0.3842 H   0  0  0  0  0  0  0  0  0  0  0  0
   -1.6883    0.7773   -0.4866 H   0  0  0  0  0  0  0  0  0  0  0  0
   -3.8220    1.7690   -0.3121 H   0  0  0  0  0  0  0  0  0  0  0  0
   -7.5059   -0.1875   -1.5905 H   0  0  0  0  0  0  0  0  0  0  0  0
   -7.3076   -1.2870   -0.2301 H   0  0  0  0  0  0  0  0  0  0  0  0
   -8.5955    0.0809    1.2511 H   0  0  0  0  0  0  0  0  0  0  0  0
   -9.4855   -0.2403   -0.2398 H   0  0  0  0  0  0  0  0  0  0  0  0
  -10.0132    2.2701    0.4701 C   0  0  0  0  0  0  0  0  0  0  0  0
  7 26  1  0
 25  5  1  0
 25  6  2  0
  5  4  2  0
 26  6  1  0
  6 27  1  0
  4  3  1  0
 27  3  2  0
  3 24  1  0
 24 23  2  0
 24  8  1  0
 23  2  1  0
  8 28  2  0
  2 22  2  0
  2 29  1  0
 28 29  1  0
 22 21  1  0
 29 20  2  0
 21 20  1  0
 20 19  1  0
 18 17  2  0
 19 17  1  0
 17  1  1  0
  1 16  1  0
  1 30  2  0
 16 15  2  0
 30 31  1  0
 15 14  1  0
 31 14  2  0
 14 13  1  0
 32 13  1  0
 32 33  1  0
 13 12  1  0
 12 11  1  0
 33 10  1  0
 10 11  1  0
 10 63  1  0
 63  9  1  0
  4 34  1  0
  5 35  1  0
  7 36  1  0
  7 37  1  0
  7 38  1  0
  8 39  1  0
  9 40  1  0
  9 41  1  0
  9 42  1  0
 63 43  1  0
 63 44  1  0
 11 45  1  0
 11 46  1  0
 12 47  1  0
 12 48  1  0
 15 49  1  0
 16 50  1  0
 19 51  1  0
 21 52  1  0
 23 53  1  0
 25 54  1  0
 27 55  1  0
 28 56  1  0
 30 57  1  0
 31 58  1  0
 32 59  1  0
 32 60  1  0
 33 61  1  0
 33 62  1  0
M  END
