
     RDKit          3D

 16 15  0  0  0  0  0  0  0  0999 V2000
    2.4849    0.1071    0.0334 C   0  0  0  0  0  0  0  0  0  0  0  0
    1.2322   -0.7044   -0.1517 C   0  0  0  0  0  0  0  0  0  0  0  0
   -0.0346    0.1217    0.0142 C   0  0  0  0  0  0  0  0  0  0  0  0
   -1.2321   -0.7797   -0.1837 C   0  0  0  0  0  0  0  0  0  0  0  0
    2.5166    1.2824    0.2990 O   0  0  0  0  0  0  0  0  0  0  0  0
    3.5764   -0.6314   -0.1322 O   0  0  0  0  0  0  0  0  0  0  0  0
   -2.5461   -0.0832   -0.0550 N   0  0  0  0  0  0  0  0  0  0  0  0
   -2.5640    1.0850    0.2420 O   0  0  0  0  0  0  0  0  0  0  0  0
   -3.5337   -0.7487   -0.2555 O   0  0  0  0  0  0  0  0  0  0  0  0
    1.2695   -1.1695   -1.1415 H   0  0  0  0  0  0  0  0  0  0  0  0
    1.2555   -1.5327    0.5635 H   0  0  0  0  0  0  0  0  0  0  0  0
   -0.0574    0.5698    1.0077 H   0  0  0  0  0  0  0  0  0  0  0  0
   -0.0469    0.9327   -0.7148 H   0  0  0  0  0  0  0  0  0  0  0  0
   -1.2453   -1.2374   -1.1735 H   0  0  0  0  0  0  0  0  0  0  0  0
   -1.2652   -1.5859    0.5509 H   0  0  0  0  0  0  0  0  0  0  0  0
    4.3671   -0.0847   -0.0120 H   0  0  0  0  0  0  0  0  0  0  0  0
  1  2  1  0
  1  5  2  0
  1  6  1  0
  2  3  1  0
  3  4  1  0
  4  7  1  0
  7  8  2  0
  7  9  1  0
  2 10  1  0
  2 11  1  0
  3 12  1  0
  3 13  1  0
  4 14  1  0
  4 15  1  0
  6 16  1  0
M  CHG  2   7   1   9  -1
M  END
