
     RDKit          3D

 28 30  0  0  0  0  0  0  0  0999 V2000
    1.6382    0.8295   -0.0687 C   0  0  0  0  0  0  0  0  0  0  0  0
    0.7536   -0.2660   -0.0424 C   0  0  0  0  0  0  0  0  0  0  0  0
    1.2548   -1.5634   -0.0389 C   0  0  0  0  0  0  0  0  0  0  0  0
    2.6279   -1.8286   -0.0608 C   0  0  0  0  0  0  0  0  0  0  0  0
    3.4692   -0.7450   -0.0875 C   0  0  0  0  0  0  0  0  0  0  0  0
    2.9788    0.5524   -0.0907 C   0  0  0  0  0  0  0  0  0  0  0  0
    4.0165    1.4231   -0.0970 O   0  0  0  0  0  0  0  0  0  0  0  0
    5.1909    0.6445   -0.2846 C   0  0  0  0  0  0  0  0  0  0  0  0
    4.8223   -0.7158   -0.0923 O   0  0  0  0  0  0  0  0  0  0  0  0
   -0.6919   -0.0318   -0.0214 C   0  0  0  0  0  0  0  0  0  0  0  0
   -1.7360   -0.9641    0.0154 C   0  0  0  0  0  0  0  0  0  0  0  0
   -2.8877   -0.2062    0.0200 C   0  0  0  0  0  0  0  0  0  0  0  0
   -2.4991    1.0937   -0.0125 N   0  0  0  0  0  0  0  0  0  0  0  0
   -1.1864    1.2017   -0.0375 N   0  0  0  0  0  0  0  0  0  0  0  0
   -4.2541   -0.7423    0.0544 C   0  0  0  0  0  0  0  0  0  0  0  0
   -5.1960    0.1849    0.0491 O   0  0  0  0  0  0  0  0  0  0  0  0
   -4.4719   -1.9287    0.0839 O   0  0  0  0  0  0  0  0  0  0  0  0
   -3.2947    2.3062   -0.0254 C   0  0  0  0  0  0  0  0  0  0  0  0
    1.2722    1.8474   -0.0685 H   0  0  0  0  0  0  0  0  0  0  0  0
    0.5737   -2.4036   -0.0216 H   0  0  0  0  0  0  0  0  0  0  0  0
    3.0013   -2.8435   -0.0549 H   0  0  0  0  0  0  0  0  0  0  0  0
    5.5724    0.7851   -1.3013 H   0  0  0  0  0  0  0  0  0  0  0  0
    5.9447    0.9298    0.4495 H   0  0  0  0  0  0  0  0  0  0  0  0
   -1.6803   -2.0395    0.0373 H   0  0  0  0  0  0  0  0  0  0  0  0
   -3.9098    2.3772    0.8678 H   0  0  0  0  0  0  0  0  0  0  0  0
   -2.6032    3.1415   -0.0485 H   0  0  0  0  0  0  0  0  0  0  0  0
   -3.9305    2.3454   -0.9061 H   0  0  0  0  0  0  0  0  0  0  0  0
   -6.0729   -0.2289    0.0710 H   0  0  0  0  0  0  0  0  0  0  0  0
  1  2  2  0
  1  6  1  0
  2  3  1  0
  2 10  1  0
  3  4  2  0
  4  5  1  0
  5  6  2  0
  5  9  1  0
  6  7  1  0
  7  8  1  0
  8  9  1  0
 10 11  1  0
 10 14  2  0
 11 12  2  0
 12 13  1  0
 12 15  1  0
 13 14  1  0
 13 18  1  0
 15 16  1  0
 15 17  2  0
  1 19  1  0
  3 20  1  0
  4 21  1  0
  8 22  1  0
  8 23  1  0
 11 24  1  0
 16 28  1  0
 18 25  1  0
 18 26  1  0
 18 27  1  0
M  END
