
     RDKit          3D

 25 24  0  0  0  0  0  0  0  0999 V2000
   -1.6001    2.4323   -0.7639 O   0  0  0  0  0  0  0  0  0  0  0  0
   -1.3987   -2.6188    0.7024 O   0  0  0  0  0  0  0  0  0  0  0  0
   -0.3772    1.1698    0.8766 C   0  0  0  0  0  0  0  0  0  0  0  0
   -0.4847    2.4735    0.0990 C   0  0  0  0  0  0  0  0  0  0  0  0
    2.5221   -0.7014    1.1541 O   0  0  0  0  0  0  0  0  0  0  0  0
   -1.2424   -0.6052   -0.5789 C   0  0  0  0  0  0  0  0  0  0  0  0
   -1.2466   -2.1218   -0.6079 C   0  0  0  0  0  0  0  0  0  0  0  0
    1.0990   -0.0385   -0.6535 C   0  0  0  0  0  0  0  0  0  0  0  0
    2.3652    0.2506    0.1268 C   0  0  0  0  0  0  0  0  0  0  0  0
   -0.1120   -0.0458    0.1371 N   0  0  0  0  0  0  0  0  0  0  0  0
   -1.5976    3.2339   -1.2944 H   0  0  0  0  0  0  0  0  0  0  0  0
   -1.3891   -3.5786    0.6584 H   0  0  0  0  0  0  0  0  0  0  0  0
    0.4084    1.3114    1.6254 H   0  0  0  0  0  0  0  0  0  0  0  0
   -1.2980    1.0229    1.4487 H   0  0  0  0  0  0  0  0  0  0  0  0
    0.4424    2.6565   -0.4599 H   0  0  0  0  0  0  0  0  0  0  0  0
   -0.5701    3.2883    0.8314 H   0  0  0  0  0  0  0  0  0  0  0  0
    3.3617   -0.5287    1.5886 H   0  0  0  0  0  0  0  0  0  0  0  0
   -2.1643   -0.2735   -0.0960 H   0  0  0  0  0  0  0  0  0  0  0  0
   -1.3043   -0.2527   -1.6195 H   0  0  0  0  0  0  0  0  0  0  0  0
   -2.0732   -2.4376   -1.2593 H   0  0  0  0  0  0  0  0  0  0  0  0
   -0.3276   -2.4995   -1.0747 H   0  0  0  0  0  0  0  0  0  0  0  0
    1.2092   -1.0212   -1.1191 H   0  0  0  0  0  0  0  0  0  0  0  0
    1.0636    0.6806   -1.4898 H   0  0  0  0  0  0  0  0  0  0  0  0
    3.1977    0.2208   -0.5877 H   0  0  0  0  0  0  0  0  0  0  0  0
    2.3446    1.2718    0.5291 H   0  0  0  0  0  0  0  0  0  0  0  0
  1  4  1  0
  1 11  1  0
  2  7  1  0
  2 12  1  0
  3  4  1  0
  3 10  1  0
  3 13  1  0
  3 14  1  0
  4 15  1  0
  4 16  1  0
  5  9  1  0
  5 17  1  0
  6  7  1  0
  6 10  1  0
  6 18  1  0
  6 19  1  0
  7 20  1  0
  7 21  1  0
  8  9  1  0
  8 10  1  0
  8 22  1  0
  8 23  1  0
  9 24  1  0
  9 25  1  0
M  END
