
     RDKit          3D

 45 47  0  0  0  0  0  0  0  0999 V2000
    6.0424    1.4421   -0.6010 C   0  0  0  0  0  0  0  0  0  0  0  0
    4.5389    3.4549   -0.1826 C   0  0  0  0  0  0  0  0  0  0  0  0
    4.8157    2.0833   -0.2974 C   0  0  0  0  0  0  0  0  0  0  0  0
    3.9298    1.0285   -0.1328 C   0  0  0  0  0  0  0  0  0  0  0  0
   -5.9624    0.7743    0.2982 C   0  0  0  0  0  0  0  0  0  0  0  0
   -0.1203   -0.8953    1.6126 C   0  0  0  0  0  0  0  0  0  0  0  0
   -1.4775    0.4893    0.7843 N   0  0  0  0  0  0  0  0  0  0  0  0
    4.1033   -1.4049   -0.2513 C   0  0  0  0  0  0  0  0  0  0  0  0
    4.8372   -2.3532   -0.4173 O   0  0  0  0  0  0  0  0  0  0  0  0
    2.6799   -1.4401    0.0235 C   0  0  0  0  0  0  0  0  0  0  0  0
   -7.1590    1.5939   -0.1576 C   0  0  0  0  0  0  0  0  0  0  0  0
    1.9849   -2.7838    0.0071 C   0  0  1  0  0  0  0  0  0  0  0  0
    2.1549   -3.5220   -1.3234 C   0  0  0  0  0  0  0  0  0  0  0  0
    2.3779   -3.6628    1.1951 C   0  0  0  0  0  0  0  0  0  0  0  0
    2.0021   -0.2764    0.2657 C   0  0  0  0  0  0  0  0  0  0  0  0
    0.5937   -0.1811    0.6284 C   0  0  0  0  0  0  0  0  0  0  0  0
   -0.3350    0.7091    0.1224 C   0  0  0  0  0  0  0  0  0  0  0  0
   -3.6596    0.2040   -0.2992 C   0  0  0  0  0  0  0  0  0  0  0  0
   -4.9355    0.8199   -0.5665 N   0  0  0  0  0  0  0  0  0  0  0  0
   -1.3647   -0.4807    1.6910 N   0  0  0  0  0  0  0  0  0  0  0  0
    2.6297    0.9389    0.1790 N   0  0  0  0  0  0  0  0  0  0  0  0
    4.3055    4.5812   -0.0880 N   0  0  0  0  0  0  0  0  0  0  0  0
    5.9309    0.1427   -0.6210 N   0  0  0  0  0  0  0  0  0  0  0  0
    4.6357   -0.1033   -0.3347 N   0  0  0  0  0  0  0  0  0  0  0  0
   -5.9373    0.1669    1.3509 O   0  0  0  0  0  0  0  0  0  0  0  0
   -8.6381    1.0934    0.6849 Cl  0  0  0  0  0  0  0  0  0  0  0  0
    6.9878    1.9218   -0.8024 H   0  0  0  0  0  0  0  0  0  0  0  0
    0.2469   -1.6681    2.2708 H   0  0  0  0  0  0  0  0  0  0  0  0
   -6.9815    2.6460    0.0670 H   0  0  0  0  0  0  0  0  0  0  0  0
   -7.3241    1.4991   -1.2296 H   0  0  0  0  0  0  0  0  0  0  0  0
    0.9161   -2.5856    0.0968 H   0  0  0  0  0  0  0  0  0  0  0  0
    3.1680   -3.8892   -1.4721 H   0  0  0  0  0  0  0  0  0  0  0  0
    1.4829   -4.3813   -1.3472 H   0  0  0  0  0  0  0  0  0  0  0  0
    1.8948   -2.8800   -2.1660 H   0  0  0  0  0  0  0  0  0  0  0  0
    2.2113   -3.1499    2.1440 H   0  0  0  0  0  0  0  0  0  0  0  0
    1.7745   -4.5720    1.2014 H   0  0  0  0  0  0  0  0  0  0  0  0
    3.4255   -3.9575    1.1507 H   0  0  0  0  0  0  0  0  0  0  0  0
   -0.2597    1.4511   -0.6569 H   0  0  0  0  0  0  0  0  0  0  0  0
   -3.2219    1.3264    1.5056 H   0  0  0  0  0  0  0  0  0  0  0  0
   -2.5856    2.0546    0.0310 H   0  0  0  0  0  0  0  0  0  0  0  0
   -3.1794   -0.0066   -1.2543 H   0  0  0  0  0  0  0  0  0  0  0  0
   -3.8123   -0.7482    0.2082 H   0  0  0  0  0  0  0  0  0  0  0  0
   -5.0264    1.3598   -1.4128 H   0  0  0  0  0  0  0  0  0  0  0  0
    2.1257    1.7775    0.4301 H   0  0  0  0  0  0  0  0  0  0  0  0
   -2.7613    1.1095    0.5429 C   0  0  0  0  0  0  0  0  0  0  0  0
 26 11  1  0
 19 18  1  0
 19  5  1  0
 11  5  1  0
 18 45  1  0
  5 25  2  0
 45  7  1  0
  7 20  1  0
  7 17  1  0
 20  6  2  0
 17 16  2  0
  6 16  1  0
 16 15  1  0
 22  2  3  0
 21 15  1  0
 21  4  1  0
  2  3  1  0
 13 12  1  0
 15 10  2  0
  4  3  2  0
  4 24  1  0
  3  1  1  0
 10 12  1  0
 10  8  1  0
 12 14  1  0
 24  8  1  0
 24 23  1  0
  8  9  2  0
  1 23  2  0
  1 27  1  0
  6 28  1  0
 11 29  1  0
 11 30  1  0
 12 31  1  1
 13 32  1  0
 13 33  1  0
 13 34  1  0
 14 35  1  0
 14 36  1  0
 14 37  1  0
 17 38  1  0
 45 39  1  0
 45 40  1  0
 18 41  1  0
 18 42  1  0
 19 43  1  0
 21 44  1  0
M  END
