
     RDKit          3D

 40 41  0  0  0  0  0  0  0  0999 V2000
    6.3749    2.4621   -0.0894 C   0  0  0  0  0  0  0  0  0  0  0  0
    6.5215    1.0581   -0.1011 O   0  0  0  0  0  0  0  0  0  0  0  0
    5.4121    0.2904   -0.0901 C   0  0  0  0  0  0  0  0  0  0  0  0
    4.1094    0.7489   -0.0727 C   0  0  0  0  0  0  0  0  0  0  0  0
    5.6641   -1.0917   -0.0987 C   0  0  0  0  0  0  0  0  0  0  0  0
    6.9186   -1.5667   -0.1158 O   0  0  0  0  0  0  0  0  0  0  0  0
    4.5987   -1.9788   -0.0905 C   0  0  0  0  0  0  0  0  0  0  0  0
    3.2963   -1.5123   -0.0740 C   0  0  0  0  0  0  0  0  0  0  0  0
    3.0285   -0.1451   -0.0646 C   0  0  0  0  0  0  0  0  0  0  0  0
    1.6836    0.4040   -0.0482 C   0  0  0  0  0  0  0  0  0  0  0  0
    0.5287   -0.2741   -0.0360 C   0  0  0  0  0  0  0  0  0  0  0  0
   -0.7525    0.4420   -0.0226 C   0  0  0  0  0  0  0  0  0  0  0  0
   -0.8863    1.6444   -0.0195 O   0  0  0  0  0  0  0  0  0  0  0  0
   -1.7778   -0.4069   -0.0140 O   0  0  0  0  0  0  0  0  0  0  0  0
   -3.0947    0.1455   -0.0071 C   0  0  0  0  0  0  0  0  0  0  0  0
   -4.0809   -1.0076   -0.0051 C   0  0  0  0  0  0  0  0  0  0  0  0
   -5.4911   -0.4846    0.0006 C   0  0  0  0  0  0  0  0  0  0  0  0
   -6.1456   -0.2167    1.1991 C   0  0  0  0  0  0  0  0  0  0  0  0
   -7.4296    0.3077    1.2069 C   0  0  0  0  0  0  0  0  0  0  0  0
   -8.0797    0.5750    0.0109 C   0  0  0  0  0  0  0  0  0  0  0  0
   -7.4380    0.3113   -1.1903 C   0  0  0  0  0  0  0  0  0  0  0  0
   -6.1539   -0.2128   -1.1926 C   0  0  0  0  0  0  0  0  0  0  0  0
    5.8350    2.8210   -0.9692 H   0  0  0  0  0  0  0  0  0  0  0  0
    5.8593    2.8081    0.8098 H   0  0  0  0  0  0  0  0  0  0  0  0
    7.3772    2.8804   -0.1002 H   0  0  0  0  0  0  0  0  0  0  0  0
    3.9071    1.8125   -0.0649 H   0  0  0  0  0  0  0  0  0  0  0  0
    7.5463   -0.8347   -0.1170 H   0  0  0  0  0  0  0  0  0  0  0  0
    4.7978   -3.0424   -0.0987 H   0  0  0  0  0  0  0  0  0  0  0  0
    2.4913   -2.2337   -0.0700 H   0  0  0  0  0  0  0  0  0  0  0  0
    1.6243    1.4883   -0.0467 H   0  0  0  0  0  0  0  0  0  0  0  0
    0.4920   -1.3561   -0.0364 H   0  0  0  0  0  0  0  0  0  0  0  0
   -3.2351    0.7739    0.8762 H   0  0  0  0  0  0  0  0  0  0  0  0
   -3.2420    0.7770   -0.8870 H   0  0  0  0  0  0  0  0  0  0  0  0
   -3.9144   -1.6347   -0.8839 H   0  0  0  0  0  0  0  0  0  0  0  0
   -3.9082   -1.6370    0.8707 H   0  0  0  0  0  0  0  0  0  0  0  0
   -5.6485   -0.4273    2.1387 H   0  0  0  0  0  0  0  0  0  0  0  0
   -7.9242    0.5045    2.1490 H   0  0  0  0  0  0  0  0  0  0  0  0
   -9.0819    0.9830    0.0151 H   0  0  0  0  0  0  0  0  0  0  0  0
   -7.9389    0.5111   -2.1286 H   0  0  0  0  0  0  0  0  0  0  0  0
   -5.6624   -0.4203   -2.1360 H   0  0  0  0  0  0  0  0  0  0  0  0
  6  5  1  0
  1  2  1  0
  5  7  1  0
  5  3  2  0
  2  3  1  0
  7  8  2  0
  3  4  1  0
  8  9  1  0
  4  9  2  0
  9 10  1  0
 10 11  2  0
 11 12  1  0
 12 13  2  0
 12 14  1  0
 15 14  1  0
 15 16  1  0
 16 17  1  0
 17 22  1  0
 17 18  2  0
 22 21  2  0
 18 19  1  0
 21 20  1  0
 19 20  2  0
  1 23  1  0
  1 24  1  0
  1 25  1  0
  4 26  1  0
  6 27  1  0
  7 28  1  0
  8 29  1  0
 10 30  1  0
 11 31  1  0
 15 32  1  0
 15 33  1  0
 16 34  1  0
 16 35  1  0
 18 36  1  0
 19 37  1  0
 20 38  1  0
 21 39  1  0
 22 40  1  0
M  END
