
     RDKit          3D

 24 25  0  0  0  0  0  0  0  0999 V2000
   -2.3250    1.2589    0.8661 N   0  0  0  0  0  0  0  0  0  0  0  0
    2.3654    1.4382   -0.1355 N   0  0  0  0  0  0  0  0  0  0  0  0
   -0.7412    2.4075   -0.2077 C   0  0  0  0  0  0  0  0  0  0  0  0
    0.4326    0.5618   -1.3939 C   0  0  0  0  0  0  0  0  0  0  0  0
    1.7045    0.3516   -0.6363 C   0  0  0  0  0  0  0  0  0  0  0  0
    2.2957   -0.8470   -0.3910 C   0  0  0  0  0  0  0  0  0  0  0  0
    3.4418    1.0820    0.4838 C   0  0  0  0  0  0  0  0  0  0  0  0
   -2.9774   -1.4261   -1.3870 C   0  0  0  0  0  0  0  0  0  0  0  0
   -1.9721   -1.2784    0.0690 S   0  0  1  0  0  0  0  0  0  0  0  0
   -2.7869   -1.5761    1.2365 O   0  0  0  0  0  0  0  0  0  0  0  0
   -0.7336   -2.0208   -0.1435 O   0  0  0  0  0  0  0  0  0  0  0  0
   -1.5939    0.4462    0.1507 C   0  0  0  0  0  0  0  0  0  0  0  0
   -1.7988    2.4910    0.6582 C   0  0  0  0  0  0  0  0  0  0  0  0
   -0.6213    1.0944   -0.5382 N   0  0  0  0  0  0  0  0  0  0  0  0
    3.7374   -0.6106    0.4974 S   0  0  0  0  0  0  0  0  0  0  0  0
   -0.0761    3.1554   -0.6052 H   0  0  0  0  0  0  0  0  0  0  0  0
    0.5875    1.2865   -2.1922 H   0  0  0  0  0  0  0  0  0  0  0  0
    0.1001   -0.3607   -1.8593 H   0  0  0  0  0  0  0  0  0  0  0  0
    1.9591   -1.8298   -0.6772 H   0  0  0  0  0  0  0  0  0  0  0  0
    4.1255    1.7717    0.9587 H   0  0  0  0  0  0  0  0  0  0  0  0
   -3.8630   -0.8047   -1.2760 H   0  0  0  0  0  0  0  0  0  0  0  0
   -2.4052   -1.1205   -2.2604 H   0  0  0  0  0  0  0  0  0  0  0  0
   -3.2622   -2.4740   -1.4787 H   0  0  0  0  0  0  0  0  0  0  0  0
   -2.1991    3.3722    1.1336 H   0  0  0  0  0  0  0  0  0  0  0  0
  1 12  2  0
  1 13  1  0
  2  7  2  0
  3 13  2  0
  3 14  1  0
  4  5  1  0
  4 14  1  0
  5  6  2  0
  6 15  1  0
  7 15  1  0
  9  8  1  6
  9 10  2  0
  9 11  2  0
  9 12  1  0
 12 14  1  0
  3 16  1  0
  4 17  1  0
  4 18  1  0
  6 19  1  0
  7 20  1  0
  8 21  1  0
  8 22  1  0
  8 23  1  0
 13 24  1  0
  2  5  1  0
M  END
