
     RDKit          3D

 52 52  0  0  0  0  0  0  0  0999 V2000
    6.3708   -4.9100   -2.3895 O   0  0  0  0  0  0  0  0  0  0  0  0
    6.5820   -3.7266   -2.1099 C   0  0  0  0  0  0  0  0  0  0  0  0
    7.8353   -3.2534   -2.3664 O   0  0  0  0  0  0  0  0  0  0  0  0
    5.6654   -2.7024   -1.5220 C   0  0  0  0  0  0  0  0  0  0  0  0
    4.2142   -3.0710   -1.7527 C   0  0  0  0  0  0  0  0  0  0  0  0
    3.2536   -2.2866   -0.8721 C   0  0  2  0  0  0  0  0  0  0  0  0
    1.8646   -2.9469   -0.9522 C   0  0  0  0  0  0  0  0  0  0  0  0
    0.8614   -2.3500   -0.0984 N   0  0  0  0  0  0  0  0  0  0  0  0
    0.7722   -0.9148   -0.2332 C   0  0  0  0  0  0  0  0  0  0  0  0
    3.1664   -0.7714   -1.1305 C   0  0  1  0  0  0  0  0  0  0  0  0
    2.8726   -0.3724   -2.5749 C   0  0  0  0  0  0  0  0  0  0  0  0
    2.6647    1.1048   -2.7032 C   0  0  0  0  0  0  0  0  0  0  0  0
    1.6605    1.4499   -3.5482 O   0  0  0  0  0  0  0  0  0  0  0  0
    3.2808    2.0235   -2.1492 O   0  0  0  0  0  0  0  0  0  0  0  0
    2.1146   -0.1735   -0.2021 C   0  0  0  0  0  0  0  0  0  0  0  0
    2.1997    0.8816    0.5270 N   0  0  0  0  0  0  0  0  0  0  0  0
    3.2646    1.1506    1.4540 C   0  0  0  0  0  0  0  0  0  0  0  0
    3.1650    2.5431    2.0829 C   0  0  0  0  0  0  0  0  0  0  0  0
    2.9656    3.6198    1.0378 C   0  0  0  0  0  0  0  0  0  0  0  0
    3.2821    4.9882    1.6024 C   0  0  0  0  0  0  0  0  0  0  0  0
    3.0656    6.1295    0.5939 C   0  0  2  0  0  0  0  0  0  0  0  0
    1.7529    6.1386   -0.0006 N   0  0  0  0  0  0  0  0  0  0  0  0
    4.2018    6.0822   -0.4252 C   0  0  0  0  0  0  0  0  0  0  0  0
    4.2738    5.4196   -1.4675 O   0  0  0  0  0  0  0  0  0  0  0  0
    5.2590    6.8793   -0.1278 O   0  0  0  0  0  0  0  0  0  0  0  0
    8.3806   -3.9618   -2.7452 H   0  0  0  0  0  0  0  0  0  0  0  0
    5.9011   -1.7008   -1.9715 H   0  0  0  0  0  0  0  0  0  0  0  0
    5.8871   -2.6403   -0.4219 H   0  0  0  0  0  0  0  0  0  0  0  0
    4.0821   -4.1638   -1.5216 H   0  0  0  0  0  0  0  0  0  0  0  0
    3.9605   -2.9536   -2.8379 H   0  0  0  0  0  0  0  0  0  0  0  0
    3.6227   -2.3952    0.1905 H   0  0  0  0  0  0  0  0  0  0  0  0
    1.4932   -2.8920   -2.0145 H   0  0  0  0  0  0  0  0  0  0  0  0
    1.9595   -4.0338   -0.6776 H   0  0  0  0  0  0  0  0  0  0  0  0
    1.0360   -2.5952    0.8602 H   0  0  0  0  0  0  0  0  0  0  0  0
    0.0868   -0.5322    0.5755 H   0  0  0  0  0  0  0  0  0  0  0  0
    0.2890   -0.6846   -1.2261 H   0  0  0  0  0  0  0  0  0  0  0  0
    4.1800   -0.3417   -0.8760 H   0  0  0  0  0  0  0  0  0  0  0  0
    3.7498   -0.6210   -3.2320 H   0  0  0  0  0  0  0  0  0  0  0  0
    1.9774   -0.9138   -2.9797 H   0  0  0  0  0  0  0  0  0  0  0  0
    1.5744    2.4213   -3.5900 H   0  0  0  0  0  0  0  0  0  0  0  0
    4.2972    1.0589    1.0017 H   0  0  0  0  0  0  0  0  0  0  0  0
    3.1839    0.3867    2.2815 H   0  0  0  0  0  0  0  0  0  0  0  0
    4.1238    2.7214    2.6376 H   0  0  0  0  0  0  0  0  0  0  0  0
    2.3296    2.5781    2.8281 H   0  0  0  0  0  0  0  0  0  0  0  0
    1.9043    3.5864    0.6757 H   0  0  0  0  0  0  0  0  0  0  0  0
    3.6296    3.4126    0.1524 H   0  0  0  0  0  0  0  0  0  0  0  0
    4.3583    5.0287    1.9203 H   0  0  0  0  0  0  0  0  0  0  0  0
    2.6483    5.1809    2.5066 H   0  0  0  0  0  0  0  0  0  0  0  0
    3.1840    7.1090    1.1533 H   0  0  0  0  0  0  0  0  0  0  0  0
    1.7660    5.7448   -0.9208 H   0  0  0  0  0  0  0  0  0  0  0  0
    1.3865    7.0691   -0.0427 H   0  0  0  0  0  0  0  0  0  0  0  0
    5.9391    6.7973   -0.8173 H   0  0  0  0  0  0  0  0  0  0  0  0
  1  2  2  0
  2  3  1  0
  2  4  1  0
  3 26  1  0
  4  5  1  0
  4 27  1  0
  4 28  1  0
  5  6  1  0
  5 29  1  0
  5 30  1  0
  6  7  1  0
  6 10  1  0
  6 31  1  1
  7  8  1  0
  7 32  1  0
  7 33  1  0
  8  9  1  0
  8 34  1  0
  9 15  1  0
  9 35  1  0
  9 36  1  0
 10 11  1  0
 10 15  1  0
 10 37  1  1
 11 12  1  0
 11 38  1  0
 11 39  1  0
 12 13  1  0
 12 14  2  0
 13 40  1  0
 15 16  2  0
 16 17  1  0
 17 18  1  0
 17 41  1  0
 17 42  1  0
 18 19  1  0
 18 43  1  0
 18 44  1  0
 19 20  1  0
 19 45  1  0
 19 46  1  0
 20 21  1  0
 20 47  1  0
 20 48  1  0
 21 22  1  0
 21 23  1  0
 21 49  1  1
 22 50  1  0
 22 51  1  0
 23 24  2  0
 23 25  1  0
 25 52  1  0
M  END
