
     RDKit          3D

 83 85  0  0  0  0  0  0  0  0999 V2000
    5.9932   -0.8895   -0.0091 C   0  0  0  0  0  0  0  0  0  0  0  0
    6.4547   -0.1880   -0.8983 O   0  0  0  0  0  0  0  0  0  0  0  0
    6.8728   -1.4918    1.0587 C   0  0  0  0  0  0  0  0  0  0  0  0
    4.6858   -1.1933    0.0936 N   0  0  0  0  0  0  0  0  0  0  0  0
    3.6673   -0.6625   -0.7714 C   0  0  2  0  0  0  0  0  0  0  0  0
    2.5808   -0.0038    0.0794 C   0  0  0  0  0  0  0  0  0  0  0  0
    2.5326   -0.1390    1.2891 O   0  0  0  0  0  0  0  0  0  0  0  0
    3.0770   -1.7249   -1.7255 C   0  0  2  0  0  0  0  0  0  0  0  0
    2.2928   -2.7994   -0.9707 C   0  0  0  0  0  0  0  0  0  0  0  0
    4.1727   -2.3128   -2.6063 C   0  0  0  0  0  0  0  0  0  0  0  0
    1.5567   -3.7759   -1.8767 C   0  0  0  0  0  0  0  0  0  0  0  0
   -3.1716    1.1969   -0.3658 N   0  0  0  0  0  0  0  0  0  0  0  0
   -3.9589    1.7541   -1.4658 C   0  0  0  0  0  0  0  0  0  0  0  0
   -5.0540    2.7449   -1.0656 C   0  0  1  0  0  0  0  0  0  0  0  0
   -4.5156    3.8821   -0.2049 C   0  0  0  0  0  0  0  0  0  0  0  0
   -5.7251    3.2552   -2.3427 C   0  0  0  0  0  0  0  0  0  0  0  0
   -0.7101    1.1142   -0.7058 C   0  0  1  0  0  0  0  0  0  0  0  0
   -6.9608    4.1107   -2.0980 C   0  0  0  0  0  0  0  0  0  0  0  0
   -0.6981    1.3429   -2.0957 O   0  0  0  0  0  0  0  0  0  0  0  0
    0.6210    1.4787   -0.0377 C   0  0  1  0  0  0  0  0  0  0  0  0
    1.6796    0.6987   -0.6309 N   0  0  0  0  0  0  0  0  0  0  0  0
    0.9581    2.9799   -0.0935 C   0  0  0  0  0  0  0  0  0  0  0  0
    3.4587    3.2452   -0.1744 C   0  0  0  0  0  0  0  0  0  0  0  0
    4.6893    3.4157    0.4450 C   0  0  0  0  0  0  0  0  0  0  0  0
    4.7551    3.6192    1.8167 C   0  0  0  0  0  0  0  0  0  0  0  0
    3.5833    3.6486    2.5619 C   0  0  0  0  0  0  0  0  0  0  0  0
    2.3566    3.4660    1.9391 C   0  0  0  0  0  0  0  0  0  0  0  0
    2.2785    3.2596    0.5645 C   0  0  0  0  0  0  0  0  0  0  0  0
    0.6759   -3.9803    2.2956 C   0  0  0  0  0  0  0  0  0  0  0  0
   -0.0134   -4.2267    1.2387 N   0  0  0  0  0  0  0  0  0  0  0  0
    0.2824   -2.5352    3.1638 S   0  0  0  0  0  0  0  0  0  0  0  0
   -0.9413   -3.2384    1.0287 C   0  0  0  0  0  0  0  0  0  0  0  0
   -0.9452   -2.2175    1.9934 C   0  0  0  0  0  0  0  0  0  0  0  0
   -1.8475   -1.1627    1.9400 C   0  0  0  0  0  0  0  0  0  0  0  0
   -2.7227   -1.1396    0.8713 C   0  0  0  0  0  0  0  0  0  0  0  0
   -2.7228   -2.1318   -0.1192 C   0  0  0  0  0  0  0  0  0  0  0  0
   -1.8387   -3.1838   -0.0405 C   0  0  0  0  0  0  0  0  0  0  0  0
   -3.8798    0.1964    0.7219 S   0  0  2  0  0  0  0  0  0  0  0  0
   -5.0955   -0.3136    0.1055 O   0  0  0  0  0  0  0  0  0  0  0  0
   -3.9722    0.8254    2.0334 O   0  0  0  0  0  0  0  0  0  0  0  0
    7.6264   -2.1253    0.5910 H   0  0  0  0  0  0  0  0  0  0  0  0
    7.3999   -0.6956    1.5841 H   0  0  0  0  0  0  0  0  0  0  0  0
    6.3292   -2.0854    1.7912 H   0  0  0  0  0  0  0  0  0  0  0  0
    4.3819   -1.7074    0.9043 H   0  0  0  0  0  0  0  0  0  0  0  0
    4.1384    0.1122   -1.3826 H   0  0  0  0  0  0  0  0  0  0  0  0
    2.3735   -1.2008   -2.3834 H   0  0  0  0  0  0  0  0  0  0  0  0
    2.9678   -3.3549   -0.3118 H   0  0  0  0  0  0  0  0  0  0  0  0
    1.5586   -2.3199   -0.3174 H   0  0  0  0  0  0  0  0  0  0  0  0
    3.7491   -2.9490   -3.3833 H   0  0  0  0  0  0  0  0  0  0  0  0
    4.7480   -1.5287   -3.1000 H   0  0  0  0  0  0  0  0  0  0  0  0
    4.8673   -2.9225   -2.0258 H   0  0  0  0  0  0  0  0  0  0  0  0
    0.8857   -3.2527   -2.5604 H   0  0  0  0  0  0  0  0  0  0  0  0
    2.2381   -4.3786   -2.4769 H   0  0  0  0  0  0  0  0  0  0  0  0
    0.9523   -4.4592   -1.2808 H   0  0  0  0  0  0  0  0  0  0  0  0
   -3.2408    2.2489   -2.1212 H   0  0  0  0  0  0  0  0  0  0  0  0
   -4.3900    0.9412   -2.0522 H   0  0  0  0  0  0  0  0  0  0  0  0
   -5.8089    2.2011   -0.4868 H   0  0  0  0  0  0  0  0  0  0  0  0
   -5.3112    4.5703    0.0809 H   0  0  0  0  0  0  0  0  0  0  0  0
   -4.0682    3.5149    0.7198 H   0  0  0  0  0  0  0  0  0  0  0  0
   -3.7578    4.4595   -0.7419 H   0  0  0  0  0  0  0  0  0  0  0  0
   -4.9944    3.8235   -2.9289 H   0  0  0  0  0  0  0  0  0  0  0  0
   -6.0076    2.3961   -2.9595 H   0  0  0  0  0  0  0  0  0  0  0  0
   -1.9272    2.8549   -0.2377 H   0  0  0  0  0  0  0  0  0  0  0  0
   -1.7428    1.7429    1.0752 H   0  0  0  0  0  0  0  0  0  0  0  0
   -0.8216    0.0324   -0.5950 H   0  0  0  0  0  0  0  0  0  0  0  0
   -7.4379    4.3828   -3.0400 H   0  0  0  0  0  0  0  0  0  0  0  0
   -7.6973    3.5748   -1.4962 H   0  0  0  0  0  0  0  0  0  0  0  0
   -6.7200    5.0375   -1.5773 H   0  0  0  0  0  0  0  0  0  0  0  0
   -0.6528    2.2902   -2.2650 H   0  0  0  0  0  0  0  0  0  0  0  0
    0.5504    1.1787    1.0097 H   0  0  0  0  0  0  0  0  0  0  0  0
    1.8189    0.8005   -1.6247 H   0  0  0  0  0  0  0  0  0  0  0  0
    0.9869    3.3176   -1.1339 H   0  0  0  0  0  0  0  0  0  0  0  0
    0.1660    3.5462    0.4024 H   0  0  0  0  0  0  0  0  0  0  0  0
    3.4163    3.0956   -1.2469 H   0  0  0  0  0  0  0  0  0  0  0  0
    5.5956    3.3900   -0.1462 H   0  0  0  0  0  0  0  0  0  0  0  0
    5.7128    3.7572    2.3022 H   0  0  0  0  0  0  0  0  0  0  0  0
    3.6247    3.8104    3.6315 H   0  0  0  0  0  0  0  0  0  0  0  0
    1.4482    3.4828    2.5310 H   0  0  0  0  0  0  0  0  0  0  0  0
   -1.8547   -0.3966    2.7032 H   0  0  0  0  0  0  0  0  0  0  0  0
   -3.4204   -2.0834   -0.9441 H   0  0  0  0  0  0  0  0  0  0  0  0
   -1.8329   -3.9610   -0.7924 H   0  0  0  0  0  0  0  0  0  0  0  0
   -1.8888    1.7879   -0.0068 C   0  0  0  0  0  0  0  0  0  0  0  0
    1.4702   -4.6208    2.6547 H   0  0  0  0  0  0  0  0  0  0  0  0
 29 30  2  0
 29 31  1  0
 30 32  1  0
 31 33  1  0
 32 33  2  0
 32 37  1  0
 33 34  1  0
 34 35  2  0
 35 36  1  0
 35 38  1  0
 36 37  2  0
 38 39  2  0
 38 40  2  0
 38 12  1  6
 12 13  1  0
 12 82  1  0
 13 14  1  0
 14 15  1  0
 14 16  1  0
 16 18  1  0
 82 17  1  0
 17 19  1  0
 17 20  1  0
 20 21  1  0
 20 22  1  0
 21  6  1  0
  6  5  1  0
  6  7  2  0
  5  8  1  0
  5  4  1  0
  8 10  1  0
  8  9  1  0
  9 11  1  0
  1  4  1  0
  1  2  2  0
  1  3  1  0
 22 28  1  0
 23 24  2  0
 23 28  1  0
 24 25  1  0
 25 26  2  0
 26 27  1  0
 27 28  2  0
 29 83  1  0
 34 79  1  0
 36 80  1  0
 37 81  1  0
 13 55  1  0
 13 56  1  0
 14 57  1  1
 15 58  1  0
 15 59  1  0
 15 60  1  0
 16 61  1  0
 16 62  1  0
 82 63  1  0
 82 64  1  0
 17 65  1  6
 18 66  1  0
 18 67  1  0
 18 68  1  0
 19 69  1  0
 20 70  1  1
 21 71  1  0
  5 45  1  6
  8 46  1  6
 10 49  1  0
 10 50  1  0
 10 51  1  0
  9 47  1  0
  9 48  1  0
 11 52  1  0
 11 53  1  0
 11 54  1  0
  4 44  1  0
  3 41  1  0
  3 42  1  0
  3 43  1  0
 22 72  1  0
 22 73  1  0
 23 74  1  0
 24 75  1  0
 25 76  1  0
 26 77  1  0
 27 78  1  0
M  END
