
     RDKit          3D

 30 29  0  0  0  0  0  0  0  0999 V2000
   -1.0848   -1.1844   -3.5489 N   0  0  0  0  0  0  0  0  0  0  0  0
   -0.4247    0.0905   -3.6943 C   0  0  2  0  0  0  0  0  0  0  0  0
    0.5348    0.0557   -4.8766 C   0  0  0  0  0  0  0  0  0  0  0  0
    1.2895   -0.8490   -5.2365 O   0  0  0  0  0  0  0  0  0  0  0  0
    0.3891    0.5885   -2.4918 C   0  0  0  0  0  0  0  0  0  0  0  0
   -0.6450    0.7838   -1.0730 S   0  0  0  0  0  0  0  0  0  0  0  0
   -1.3491    1.1606    4.2228 N   0  0  0  0  0  0  0  0  0  0  0  0
   -0.5476    0.0017    3.8980 C   0  0  1  0  0  0  0  0  0  0  0  0
    0.1847    0.0235    2.5445 C   0  0  0  0  0  0  0  0  0  0  0  0
   -0.7850   -0.1315    1.3935 C   0  0  0  0  0  0  0  0  0  0  0  0
   -0.0522   -0.3360    0.0984 C   0  0  0  0  0  0  0  0  0  0  0  0
    0.6819   -1.3025   -0.1191 O   0  0  0  0  0  0  0  0  0  0  0  0
    0.5169   -0.2143    4.9628 C   0  0  0  0  0  0  0  0  0  0  0  0
    1.2380    0.6189    5.5137 O   0  0  0  0  0  0  0  0  0  0  0  0
    0.6606   -1.5154    5.3280 O   0  0  0  0  0  0  0  0  0  0  0  0
    0.5256    1.2014   -5.6093 O   0  0  0  0  0  0  0  0  0  0  0  0
   -1.6316   -1.1978   -2.7106 H   0  0  0  0  0  0  0  0  0  0  0  0
   -0.4279   -1.9410   -3.5476 H   0  0  0  0  0  0  0  0  0  0  0  0
   -1.2284    0.8578   -3.9204 H   0  0  0  0  0  0  0  0  0  0  0  0
    0.8181    1.5927   -2.7359 H   0  0  0  0  0  0  0  0  0  0  0  0
    1.2370   -0.1076   -2.2672 H   0  0  0  0  0  0  0  0  0  0  0  0
   -2.2901    1.0301    3.9108 H   0  0  0  0  0  0  0  0  0  0  0  0
   -1.2415   -0.8938    3.9118 H   0  0  0  0  0  0  0  0  0  0  0  0
    0.7620    0.9785    2.4374 H   0  0  0  0  0  0  0  0  0  0  0  0
    0.9212   -0.8254    2.5238 H   0  0  0  0  0  0  0  0  0  0  0  0
   -1.4399   -1.0303    1.5635 H   0  0  0  0  0  0  0  0  0  0  0  0
   -1.4529    0.7690    1.3139 H   0  0  0  0  0  0  0  0  0  0  0  0
    1.3515   -1.5898    6.0077 H   0  0  0  0  0  0  0  0  0  0  0  0
    1.1538    1.1225   -6.3469 H   0  0  0  0  0  0  0  0  0  0  0  0
   -0.9680    1.9936    3.8166 H   0  0  0  0  0  0  0  0  0  0  0  0
  1  2  1  0
  1 17  1  0
  1 18  1  0
  2  3  1  0
  2  5  1  0
  2 19  1  6
  3  4  2  0
  3 16  1  0
  5  6  1  0
  5 20  1  0
  5 21  1  0
  6 11  1  0
  7  8  1  0
  7 30  1  0
  7 22  1  0
  8  9  1  0
  8 13  1  0
  8 23  1  6
  9 10  1  0
  9 24  1  0
  9 25  1  0
 10 11  1  0
 10 26  1  0
 10 27  1  0
 11 12  2  0
 13 14  2  0
 13 15  1  0
 15 28  1  0
 16 29  1  0
M  END
