
     RDKit          3D

 39 42  0  0  0  0  0  0  0  0999 V2000
    4.9806    0.7413   -0.1356 C   0  0  0  0  0  0  0  0  0  0  0  0
    3.9484    1.6640   -0.0241 C   0  0  0  0  0  0  0  0  0  0  0  0
    2.3392   -0.1146    0.0001 C   0  0  0  0  0  0  0  0  0  0  0  0
   -1.0236   -3.6028    0.1171 C   0  0  0  0  0  0  0  0  0  0  0  0
   -1.2944    0.0468    0.1727 C   0  0  0  0  0  0  0  0  0  0  0  0
   -4.0394    3.1916   -0.0449 O   0  0  0  0  0  0  0  0  0  0  0  0
   -4.4881    1.8634    0.0809 C   0  0  0  0  0  0  0  0  0  0  0  0
   -3.4843    1.0098    0.8325 C   0  0  0  0  0  0  0  0  0  0  0  0
   -2.1904    1.0639    0.1699 N   0  0  0  0  0  0  0  0  0  0  0  0
   -1.7282    2.4342    0.0020 C   0  0  0  0  0  0  0  0  0  0  0  0
   -2.7981    3.2410   -0.7115 C   0  0  0  0  0  0  0  0  0  0  0  0
   -1.6291   -1.3303    0.1885 C   0  0  0  0  0  0  0  0  0  0  0  0
   -0.5706   -2.2451    0.1503 C   0  0  0  0  0  0  0  0  0  0  0  0
    0.7163   -1.8780    0.1079 N   0  0  0  0  0  0  0  0  0  0  0  0
    0.9312   -0.5792    0.0746 C   0  0  0  0  0  0  0  0  0  0  0  0
   -0.0080    0.3658    0.1086 N   0  0  0  0  0  0  0  0  0  0  0  0
   -2.3716   -3.6871    0.1002 C   0  0  0  0  0  0  0  0  0  0  0  0
   -3.1517   -2.1527    0.1367 S   0  0  0  0  0  0  0  0  0  0  0  0
    2.6225    1.2477    0.0409 C   0  0  0  0  0  0  0  0  0  0  0  0
    3.3656   -1.0474   -0.1076 C   0  0  0  0  0  0  0  0  0  0  0  0
    4.6964   -0.6276   -0.1822 C   0  0  0  0  0  0  0  0  0  0  0  0
    4.1846    2.9919    0.0283 O   0  0  0  0  0  0  0  0  0  0  0  0
    5.7104   -1.5427   -0.3529 N   0  0  0  0  0  0  0  0  0  0  0  0
    6.0109    1.0797   -0.1895 H   0  0  0  0  0  0  0  0  0  0  0  0
   -0.3565   -4.4518    0.0944 H   0  0  0  0  0  0  0  0  0  0  0  0
   -4.6758    1.4183   -0.9061 H   0  0  0  0  0  0  0  0  0  0  0  0
   -3.3787    1.3749    1.8615 H   0  0  0  0  0  0  0  0  0  0  0  0
   -3.8718   -0.0023    0.9015 H   0  0  0  0  0  0  0  0  0  0  0  0
   -1.4943    2.8810    0.9760 H   0  0  0  0  0  0  0  0  0  0  0  0
   -0.8182    2.4465   -0.5920 H   0  0  0  0  0  0  0  0  0  0  0  0
   -2.8998    2.8716   -1.7416 H   0  0  0  0  0  0  0  0  0  0  0  0
   -2.4921    4.2869   -0.7583 H   0  0  0  0  0  0  0  0  0  0  0  0
   -2.9752   -4.5814    0.0673 H   0  0  0  0  0  0  0  0  0  0  0  0
    1.8273    1.9750    0.1264 H   0  0  0  0  0  0  0  0  0  0  0  0
    3.1336   -2.1039   -0.1361 H   0  0  0  0  0  0  0  0  0  0  0  0
    5.1319    3.1648   -0.0054 H   0  0  0  0  0  0  0  0  0  0  0  0
    6.6287   -1.2486   -0.0629 H   0  0  0  0  0  0  0  0  0  0  0  0
    5.5058   -2.4846   -0.0612 H   0  0  0  0  0  0  0  0  0  0  0  0
   -5.4310    1.8838    0.6285 H   0  0  0  0  0  0  0  0  0  0  0  0
 23 21  1  0
 21  1  2  0
 21 20  1  0
  1  2  1  0
 20  3  2  0
  2 22  1  0
  2 19  2  0
  3 19  1  0
  3 15  1  0
 14 15  1  0
 14 13  2  0
 15 16  2  0
  4 13  1  0
  4 17  2  0
 13 12  1  0
 16  5  1  0
 17 18  1  0
 12  5  2  0
 12 18  1  0
  5  9  1  0
  9 10  1  0
  9  8  1  0
 10 11  1  0
  8  7  1  0
 11  6  1  0
  7  6  1  0
  1 24  1  0
  4 25  1  0
  7 39  1  0
  7 26  1  0
  8 27  1  0
  8 28  1  0
 10 29  1  0
 10 30  1  0
 11 31  1  0
 11 32  1  0
 17 33  1  0
 19 34  1  0
 20 35  1  0
 22 36  1  0
 23 37  1  0
 23 38  1  0
M  END
