
     RDKit          3D

 46 49  0  0  0  0  0  0  0  0999 V2000
    0.6803   -4.8151    0.6648 F   0  0  0  0  0  0  0  0  0  0  0  0
    0.5575   -3.4821    0.7590 C   0  0  0  0  0  0  0  0  0  0  0  0
    1.4775   -2.6817    0.1143 C   0  0  0  0  0  0  0  0  0  0  0  0
    1.3736   -1.2958    0.2056 C   0  0  0  0  0  0  0  0  0  0  0  0
    2.4009   -0.4992   -0.5117 C   0  0  0  0  0  0  0  0  0  0  0  0
    3.0241    0.4627    0.1764 N   0  0  0  0  0  0  0  0  0  0  0  0
    3.9517    1.1758   -0.4213 C   0  0  0  0  0  0  0  0  0  0  0  0
    4.5788    2.1389    0.2549 O   0  0  0  0  0  0  0  0  0  0  0  0
    4.1949    2.3730    1.6024 C   0  0  0  0  0  0  0  0  0  0  0  0
    4.3329    0.9808   -1.7556 C   0  0  0  0  0  0  0  0  0  0  0  0
    3.6864   -0.0094   -2.4590 C   0  0  0  0  0  0  0  0  0  0  0  0
    2.6983   -0.7705   -1.8363 C   0  0  0  0  0  0  0  0  0  0  0  0
   -0.4715   -2.9472    1.5006 C   0  0  0  0  0  0  0  0  0  0  0  0
   -0.5713   -1.5651    1.5823 C   0  0  0  0  0  0  0  0  0  0  0  0
    0.3283   -0.7174    0.9466 C   0  0  0  0  0  0  0  0  0  0  0  0
    0.1543    0.7964    1.0108 C   0  0  2  0  0  0  0  0  0  0  0  0
   -0.8302    1.2243    1.9776 N   0  0  0  0  0  0  0  0  0  0  0  0
   -2.1597    1.3153    1.7475 C   0  0  0  0  0  0  0  0  0  0  0  0
   -2.9397    1.6377    2.6358 O   0  0  0  0  0  0  0  0  0  0  0  0
   -0.2294    1.3802   -0.3476 C   0  0  0  0  0  0  0  0  0  0  0  0
   -1.6492    1.0482   -0.6709 C   0  0  0  0  0  0  0  0  0  0  0  0
   -1.9634    0.8319   -1.9316 N   0  0  0  0  0  0  0  0  0  0  0  0
   -3.2508    0.5596   -2.1812 C   0  0  0  0  0  0  0  0  0  0  0  0
   -3.5943    0.3433   -3.4535 N   0  0  0  0  0  0  0  0  0  0  0  0
   -4.2206    0.4710   -1.2623 N   0  0  0  0  0  0  0  0  0  0  0  0
   -3.9057    0.6970    0.0019 C   0  0  0  0  0  0  0  0  0  0  0  0
   -2.5848    1.0091    0.3673 C   0  0  0  0  0  0  0  0  0  0  0  0
   -5.0325    0.5733    0.9782 C   0  0  0  0  0  0  0  0  0  0  0  0
    2.2885   -3.1343   -0.4422 H   0  0  0  0  0  0  0  0  0  0  0  0
    3.1489    2.6741    1.6791 H   0  0  0  0  0  0  0  0  0  0  0  0
    4.3516    1.4935    2.2278 H   0  0  0  0  0  0  0  0  0  0  0  0
    4.8272    3.1834    1.9553 H   0  0  0  0  0  0  0  0  0  0  0  0
    5.1020    1.5928   -2.2065 H   0  0  0  0  0  0  0  0  0  0  0  0
    3.9399   -0.1917   -3.4948 H   0  0  0  0  0  0  0  0  0  0  0  0
    2.1674   -1.5407   -2.3779 H   0  0  0  0  0  0  0  0  0  0  0  0
   -1.1839   -3.5850    2.0063 H   0  0  0  0  0  0  0  0  0  0  0  0
   -1.3805   -1.1557    2.1698 H   0  0  0  0  0  0  0  0  0  0  0  0
    1.1025    1.2356    1.3133 H   0  0  0  0  0  0  0  0  0  0  0  0
   -0.5223    1.3994    2.9226 H   0  0  0  0  0  0  0  0  0  0  0  0
   -0.1227    2.4691   -0.3073 H   0  0  0  0  0  0  0  0  0  0  0  0
    0.4249    1.0259   -1.1423 H   0  0  0  0  0  0  0  0  0  0  0  0
   -2.9158    0.4413   -4.1878 H   0  0  0  0  0  0  0  0  0  0  0  0
   -4.5521    0.1676   -3.7001 H   0  0  0  0  0  0  0  0  0  0  0  0
   -5.2959    1.5452    1.3940 H   0  0  0  0  0  0  0  0  0  0  0  0
   -5.9033    0.1616    0.4735 H   0  0  0  0  0  0  0  0  0  0  0  0
   -4.7699   -0.0686    1.8172 H   0  0  0  0  0  0  0  0  0  0  0  0
 19 18  2  0
 13 14  1  0
 13  2  2  0
 14 15  2  0
 18 17  1  0
 18 27  1  0
 28 26  1  0
 17 16  1  0
  1  2  1  0
 26 27  1  0
 26 25  2  0
 27 21  2  0
  2  3  1  0
 15 16  1  0
 15  4  1  0
 25 23  1  0
 21 20  1  0
 21 22  1  0
 20 16  1  0
 23 22  2  0
 23 24  1  0
  3  4  2  0
  4  5  1  0
  5  6  2  0
  5 12  1  0
  6  7  1  0
 12 11  2  0
  9  8  1  0
  7  8  1  0
  7 10  2  0
 11 10  1  0
  3 29  1  0
  9 30  1  0
  9 31  1  0
  9 32  1  0
 10 33  1  0
 11 34  1  0
 12 35  1  0
 13 36  1  0
 14 37  1  0
 16 38  1  1
 17 39  1  0
 20 40  1  0
 20 41  1  0
 24 42  1  0
 24 43  1  0
 28 44  1  0
 28 45  1  0
 28 46  1  0
M  END
