
     RDKit          3D

 56 59  0  0  0  0  0  0  0  0999 V2000
    3.2630    0.5468    0.1266 C   0  0  0  0  0  0  0  0  0  0  0  0
    1.1097    0.9629    0.2058 C   0  0  0  0  0  0  0  0  0  0  0  0
   -4.4768    1.3520    1.3378 C   0  0  0  0  0  0  0  0  0  0  0  0
   -5.7428    0.8109    1.1763 C   0  0  0  0  0  0  0  0  0  0  0  0
   -6.2544    0.6705   -0.1055 C   0  0  0  0  0  0  0  0  0  0  0  0
   -5.5276    1.0687   -1.2194 C   0  0  0  0  0  0  0  0  0  0  0  0
   -4.2658    1.6089   -1.0393 C   0  0  0  0  0  0  0  0  0  0  0  0
    3.4409   -1.9659   -0.5548 C   0  0  0  0  0  0  0  0  0  0  0  0
    4.8155   -2.2427   -0.0694 C   0  0  0  0  0  0  0  0  0  0  0  0
    4.6663    0.9748    0.2133 C   0  0  0  0  0  0  0  0  0  0  0  0
    5.5726    0.6719   -0.8002 C   0  0  0  0  0  0  0  0  0  0  0  0
    6.9015    1.0466   -0.6843 C   0  0  0  0  0  0  0  0  0  0  0  0
    7.3356    1.7325    0.4421 C   0  0  0  0  0  0  0  0  0  0  0  0
    6.4310    2.0589    1.4447 C   0  0  0  0  0  0  0  0  0  0  0  0
    5.0998    1.6912    1.3272 C   0  0  0  0  0  0  0  0  0  0  0  0
    5.6989   -2.9239   -0.9040 C   0  0  0  0  0  0  0  0  0  0  0  0
    6.9900   -3.1904   -0.4780 C   0  0  0  0  0  0  0  0  0  0  0  0
    7.3944   -2.8087    0.7953 C   0  0  0  0  0  0  0  0  0  0  0  0
    2.2956    1.4669    0.3839 N   0  0  0  0  0  0  0  0  0  0  0  0
    1.0587   -0.6800   -0.2973 S   0  0  0  0  0  0  0  0  0  0  0  0
    2.7950   -0.6981   -0.2240 C   0  0  0  0  0  0  0  0  0  0  0  0
   -0.0096    1.7211    0.3985 N   0  0  0  0  0  0  0  0  0  0  0  0
   -1.2844    1.2755    0.1923 C   0  0  0  0  0  0  0  0  0  0  0  0
   -1.5007    0.1336   -0.1519 O   0  0  0  0  0  0  0  0  0  0  0  0
   -2.3532    2.3193    0.4149 C   0  0  0  0  0  0  0  0  0  0  0  0
   -3.7290    1.7543    0.2365 C   0  0  0  0  0  0  0  0  0  0  0  0
   -8.6411    0.1705    0.8869 O   0  0  0  0  0  0  0  0  0  0  0  0
   -8.4030    0.4216   -1.6026 O   0  0  0  0  0  0  0  0  0  0  0  0
    2.8294   -2.7958   -1.2069 O   0  0  0  0  0  0  0  0  0  0  0  0
    6.5051   -2.1614    1.6428 C   0  0  0  0  0  0  0  0  0  0  0  0
    5.2212   -1.8718    1.2100 C   0  0  0  0  0  0  0  0  0  0  0  0
   -7.5206   -1.8034   -0.4760 C   0  0  0  0  0  0  0  0  0  0  0  0
   -8.8059   -2.5794   -0.7061 C   0  0  0  0  0  0  0  0  0  0  0  0
   -4.0737    1.4682    2.3358 H   0  0  0  0  0  0  0  0  0  0  0  0
   -6.3151    0.5111    2.0439 H   0  0  0  0  0  0  0  0  0  0  0  0
   -5.9325    0.9648   -2.2169 H   0  0  0  0  0  0  0  0  0  0  0  0
   -3.6985    1.9267   -1.9049 H   0  0  0  0  0  0  0  0  0  0  0  0
    5.2369    0.1541   -1.6893 H   0  0  0  0  0  0  0  0  0  0  0  0
    7.5985    0.8054   -1.4758 H   0  0  0  0  0  0  0  0  0  0  0  0
    8.3749    2.0199    0.5354 H   0  0  0  0  0  0  0  0  0  0  0  0
    6.7639    2.5993    2.3212 H   0  0  0  0  0  0  0  0  0  0  0  0
    4.3986    1.9378    2.1143 H   0  0  0  0  0  0  0  0  0  0  0  0
    5.3860   -3.2203   -1.8970 H   0  0  0  0  0  0  0  0  0  0  0  0
    7.6811   -3.6987   -1.1375 H   0  0  0  0  0  0  0  0  0  0  0  0
    8.4025   -3.0206    1.1274 H   0  0  0  0  0  0  0  0  0  0  0  0
    0.1515    2.6789    0.6812 H   0  0  0  0  0  0  0  0  0  0  0  0
   -2.2299    2.7425    1.4152 H   0  0  0  0  0  0  0  0  0  0  0  0
   -2.1766    3.1387   -0.2883 H   0  0  0  0  0  0  0  0  0  0  0  0
    6.8123   -1.8759    2.6400 H   0  0  0  0  0  0  0  0  0  0  0  0
    4.5332   -1.3675    1.8760 H   0  0  0  0  0  0  0  0  0  0  0  0
   -6.8192   -1.9204   -1.3030 H   0  0  0  0  0  0  0  0  0  0  0  0
   -7.0213   -2.1065    0.4451 H   0  0  0  0  0  0  0  0  0  0  0  0
   -9.5008   -2.4608    0.1231 H   0  0  0  0  0  0  0  0  0  0  0  0
   -9.2994   -2.2764   -1.6276 H   0  0  0  0  0  0  0  0  0  0  0  0
   -8.5645   -3.6376   -0.7899 H   0  0  0  0  0  0  0  0  0  0  0  0
   -7.8586   -0.0497   -0.3293 S   0  0  1  0  0  0  0  0  0  0  0  0
 28 56  2  0
 27 56  2  0
 56 32  1  6
 56  5  1  0
 32 33  1  0
  5  6  2  0
  5  4  1  0
  6  7  1  0
  4  3  2  0
  7 26  2  0
  3 26  1  0
 26 25  1  0
 25 23  1  0
 12 11  2  0
 12 13  1  0
 23 22  1  0
 23 24  2  0
 11 10  1  0
 22  2  1  0
 19  2  2  0
 19  1  1  0
  2 20  1  0
 30 31  2  0
 30 18  1  0
 13 14  2  0
 31  9  1  0
 10  1  1  0
 10 15  2  0
  1 21  2  0
 20 21  1  0
 21  8  1  0
 18 17  2  0
 14 15  1  0
  9  8  1  0
  9 16  2  0
  8 29  2  0
 17 16  1  0
  3 34  1  0
  4 35  1  0
  6 36  1  0
  7 37  1  0
 11 38  1  0
 12 39  1  0
 13 40  1  0
 14 41  1  0
 15 42  1  0
 16 43  1  0
 17 44  1  0
 18 45  1  0
 22 46  1  0
 25 47  1  0
 25 48  1  0
 30 49  1  0
 31 50  1  0
 32 51  1  0
 32 52  1  0
 33 53  1  0
 33 54  1  0
 33 55  1  0
M  END
