
     RDKit          3D

 75 74  0  0  0  0  0  0  0  0999 V2000
   -2.6701   -0.6175   14.4036 C   0  0  0  0  0  0  0  0  0  0  0  0
   -2.4752    0.2641   13.1778 C   0  0  0  0  0  0  0  0  0  0  0  0
   -1.6833   -0.4253   12.0734 C   0  0  0  0  0  0  0  0  0  0  0  0
   -1.4824    0.4474   10.8412 C   0  0  0  0  0  0  0  0  0  0  0  0
   -0.6965   -0.2435    9.7338 C   0  0  0  0  0  0  0  0  0  0  0  0
   -0.4983    0.6334    8.5041 C   0  0  0  0  0  0  0  0  0  0  0  0
    0.2838   -0.0520    7.3908 C   0  0  0  0  0  0  0  0  0  0  0  0
    0.4756    0.8378    6.1696 C   0  0  0  0  0  0  0  0  0  0  0  0
    1.2555    0.1621    5.0478 C   0  0  0  0  0  0  0  0  0  0  0  0
    1.4281    1.0877    3.8609 C   0  0  0  0  0  0  0  0  0  0  0  0
    2.1524    0.4388    2.8427 O   0  0  0  0  0  0  0  0  0  0  0  0
    2.3775    1.2700    1.7332 C   0  0  0  0  0  0  0  0  0  0  0  0
    3.1607    0.5335    0.6778 C   0  0  0  0  0  0  0  0  0  0  0  0
    2.3805   -0.5029    0.1377 O   0  0  0  0  0  0  0  0  0  0  0  0
    3.0288   -1.1814   -0.9074 C   0  0  0  0  0  0  0  0  0  0  0  0
    2.0837   -2.1687   -1.5423 C   0  0  0  0  0  0  0  0  0  0  0  0
    1.0133   -1.4802   -2.1373 O   0  0  0  0  0  0  0  0  0  0  0  0
    0.1567   -2.3218   -2.8658 C   0  0  0  0  0  0  0  0  0  0  0  0
   -1.0235   -1.5310   -3.3683 C   0  0  0  0  0  0  0  0  0  0  0  0
   -0.5884   -0.5458   -4.2705 O   0  0  0  0  0  0  0  0  0  0  0  0
   -1.6348    0.2794   -4.7154 C   0  0  0  0  0  0  0  0  0  0  0  0
   -1.0905    1.3683   -5.6028 C   0  0  0  0  0  0  0  0  0  0  0  0
   -0.5845    0.8156   -6.7907 O   0  0  0  0  0  0  0  0  0  0  0  0
   -0.1062    1.7943   -7.6783 C   0  0  0  0  0  0  0  0  0  0  0  0
    0.3512    1.1477   -8.9595 C   0  0  0  0  0  0  0  0  0  0  0  0
   -0.7457    0.5738   -9.6232 O   0  0  0  0  0  0  0  0  0  0  0  0
   -0.3835   -0.0257  -10.8420 C   0  0  0  0  0  0  0  0  0  0  0  0
   -1.5916   -0.6492  -11.4921 C   0  0  0  0  0  0  0  0  0  0  0  0
   -2.5065    0.3594  -11.8557 O   0  0  0  0  0  0  0  0  0  0  0  0
   -3.2432   -0.1088   15.1795 H   0  0  0  0  0  0  0  0  0  0  0  0
   -3.2042   -1.5343   14.1463 H   0  0  0  0  0  0  0  0  0  0  0  0
   -1.7109   -0.9076   14.8369 H   0  0  0  0  0  0  0  0  0  0  0  0
   -3.4507    0.5685   12.7855 H   0  0  0  0  0  0  0  0  0  0  0  0
   -1.9640    1.1882   13.4649 H   0  0  0  0  0  0  0  0  0  0  0  0
   -0.7069   -0.7322   12.4652 H   0  0  0  0  0  0  0  0  0  0  0  0
   -2.1962   -1.3498   11.7850 H   0  0  0  0  0  0  0  0  0  0  0  0
   -2.4592    0.7568   10.4527 H   0  0  0  0  0  0  0  0  0  0  0  0
   -0.9665    1.3702   11.1293 H   0  0  0  0  0  0  0  0  0  0  0  0
    0.2807   -0.5536   10.1208 H   0  0  0  0  0  0  0  0  0  0  0  0
   -1.2130   -1.1654    9.4442 H   0  0  0  0  0  0  0  0  0  0  0  0
   -1.4760    0.9453    8.1200 H   0  0  0  0  0  0  0  0  0  0  0  0
    0.0192    1.5545    8.7947 H   0  0  0  0  0  0  0  0  0  0  0  0
    1.2626   -0.3637    7.7716 H   0  0  0  0  0  0  0  0  0  0  0  0
   -0.2338   -0.9712    7.0955 H   0  0  0  0  0  0  0  0  0  0  0  0
   -0.5047    1.1515    5.7943 H   0  0  0  0  0  0  0  0  0  0  0  0
    0.9927    1.7558    6.4696 H   0  0  0  0  0  0  0  0  0  0  0  0
    2.2382   -0.1463    5.4179 H   0  0  0  0  0  0  0  0  0  0  0  0
    0.7341   -0.7475    4.7341 H   0  0  0  0  0  0  0  0  0  0  0  0
    0.4422    1.4040    3.4882 H   0  0  0  0  0  0  0  0  0  0  0  0
    1.9501    2.0034    4.1777 H   0  0  0  0  0  0  0  0  0  0  0  0
    1.4279    1.6277    1.3091 H   0  0  0  0  0  0  0  0  0  0  0  0
    2.9501    2.1633    2.0206 H   0  0  0  0  0  0  0  0  0  0  0  0
    3.4392    1.2581   -0.1000 H   0  0  0  0  0  0  0  0  0  0  0  0
    4.0979    0.1472    1.1045 H   0  0  0  0  0  0  0  0  0  0  0  0
    3.3914   -0.4752   -1.6682 H   0  0  0  0  0  0  0  0  0  0  0  0
    3.9070   -1.7314   -0.5408 H   0  0  0  0  0  0  0  0  0  0  0  0
    2.6505   -2.7458   -2.2865 H   0  0  0  0  0  0  0  0  0  0  0  0
    1.7212   -2.8870   -0.7925 H   0  0  0  0  0  0  0  0  0  0  0  0
    0.6870   -2.7888   -3.7081 H   0  0  0  0  0  0  0  0  0  0  0  0
   -0.2266   -3.1395   -2.2398 H   0  0  0  0  0  0  0  0  0  0  0  0
   -1.7246   -2.2284   -3.8480 H   0  0  0  0  0  0  0  0  0  0  0  0
   -1.5573   -1.0778   -2.5204 H   0  0  0  0  0  0  0  0  0  0  0  0
   -2.3960   -0.3026   -5.2553 H   0  0  0  0  0  0  0  0  0  0  0  0
   -2.1449    0.7583   -3.8678 H   0  0  0  0  0  0  0  0  0  0  0  0
   -1.9060    2.0741   -5.8141 H   0  0  0  0  0  0  0  0  0  0  0  0
   -0.3139    1.9328   -5.0663 H   0  0  0  0  0  0  0  0  0  0  0  0
   -0.8833    2.5423   -7.8930 H   0  0  0  0  0  0  0  0  0  0  0  0
    0.7457    2.3384   -7.2468 H   0  0  0  0  0  0  0  0  0  0  0  0
    0.8280    1.9212   -9.5778 H   0  0  0  0  0  0  0  0  0  0  0  0
    1.1221    0.3924   -8.7476 H   0  0  0  0  0  0  0  0  0  0  0  0
    0.0700    0.7109  -11.5219 H   0  0  0  0  0  0  0  0  0  0  0  0
    0.3656   -0.8142  -10.6845 H   0  0  0  0  0  0  0  0  0  0  0  0
   -1.2365   -1.2128  -12.3642 H   0  0  0  0  0  0  0  0  0  0  0  0
   -2.0398   -1.3776  -10.8035 H   0  0  0  0  0  0  0  0  0  0  0  0
   -3.2523   -0.0584  -12.2949 H   0  0  0  0  0  0  0  0  0  0  0  0
  1  2  1  0
  1 30  1  0
  1 31  1  0
  1 32  1  0
  2  3  1  0
  2 33  1  0
  2 34  1  0
  3  4  1  0
  3 35  1  0
  3 36  1  0
  4  5  1  0
  4 37  1  0
  4 38  1  0
  5  6  1  0
  5 39  1  0
  5 40  1  0
  6  7  1  0
  6 41  1  0
  6 42  1  0
  7  8  1  0
  7 43  1  0
  7 44  1  0
  8  9  1  0
  8 45  1  0
  8 46  1  0
  9 10  1  0
  9 47  1  0
  9 48  1  0
 10 11  1  0
 10 49  1  0
 10 50  1  0
 11 12  1  0
 12 13  1  0
 12 51  1  0
 12 52  1  0
 13 14  1  0
 13 53  1  0
 13 54  1  0
 14 15  1  0
 15 16  1  0
 15 55  1  0
 15 56  1  0
 16 17  1  0
 16 57  1  0
 16 58  1  0
 17 18  1  0
 18 19  1  0
 18 59  1  0
 18 60  1  0
 19 20  1  0
 19 61  1  0
 19 62  1  0
 20 21  1  0
 21 22  1  0
 21 63  1  0
 21 64  1  0
 22 23  1  0
 22 65  1  0
 22 66  1  0
 23 24  1  0
 24 25  1  0
 24 67  1  0
 24 68  1  0
 25 26  1  0
 25 69  1  0
 25 70  1  0
 26 27  1  0
 27 28  1  0
 27 71  1  0
 27 72  1  0
 28 29  1  0
 28 73  1  0
 28 74  1  0
 29 75  1  0
M  END
