
     RDKit          3D

 42 43  0  0  0  0  0  0  0  0999 V2000
   -5.7460   -2.5031    0.2903 O   0  0  0  0  0  0  0  0  0  0  0  0
   -6.1268   -1.4517   -0.1607 C   0  0  0  0  0  0  0  0  0  0  0  0
   -7.3912   -1.2280   -0.5084 O   0  0  0  0  0  0  0  0  0  0  0  0
   -5.2628   -0.2459   -0.4031 C   0  0  0  0  0  0  0  0  0  0  0  0
   -3.8195   -0.4242    0.0367 C   0  0  0  0  0  0  0  0  0  0  0  0
   -3.0038    0.8337   -0.2325 C   0  0  0  0  0  0  0  0  0  0  0  0
   -1.5750    0.6922    0.2648 C   0  0  0  0  0  0  0  0  0  0  0  0
   -0.8229    1.9103   -0.0272 N   0  0  0  0  0  0  0  0  0  0  0  0
    0.5443    2.2293    0.8322 S   0  0  1  0  0  0  0  0  0  0  0  0
    1.1568    3.3907    0.2040 O   0  0  0  0  0  0  0  0  0  0  0  0
    0.1533    2.3129    2.2305 O   0  0  0  0  0  0  0  0  0  0  0  0
    1.6068    0.8229    0.6639 C   0  0  0  0  0  0  0  0  0  0  0  0
    2.1551    0.4348   -0.5971 C   0  0  0  0  0  0  0  0  0  0  0  0
    1.9529    1.1436   -1.8049 C   0  0  0  0  0  0  0  0  0  0  0  0
    2.4885    0.7006   -2.9852 C   0  0  0  0  0  0  0  0  0  0  0  0
    3.2631   -0.4683   -3.0263 C   0  0  0  0  0  0  0  0  0  0  0  0
    3.4908   -1.1732   -1.8753 C   0  0  0  0  0  0  0  0  0  0  0  0
    2.9465   -0.7442   -0.6450 C   0  0  0  0  0  0  0  0  0  0  0  0
    3.1860   -1.4869    0.5556 C   0  0  0  0  0  0  0  0  0  0  0  0
    3.9432   -2.5724    0.4130 O   0  0  0  0  0  0  0  0  0  0  0  0
    4.2290   -3.3663    1.5528 C   0  0  0  0  0  0  0  0  0  0  0  0
    2.6469   -1.0706    1.7487 C   0  0  0  0  0  0  0  0  0  0  0  0
    1.8508    0.0815    1.7886 C   0  0  0  0  0  0  0  0  0  0  0  0
   -7.9272   -2.0166   -0.3374 H   0  0  0  0  0  0  0  0  0  0  0  0
   -5.3130   -0.0034   -1.4697 H   0  0  0  0  0  0  0  0  0  0  0  0
   -5.7165    0.6078    0.1099 H   0  0  0  0  0  0  0  0  0  0  0  0
   -3.7841   -0.6599    1.1036 H   0  0  0  0  0  0  0  0  0  0  0  0
   -3.3708   -1.2729   -0.4848 H   0  0  0  0  0  0  0  0  0  0  0  0
   -3.0018    1.0475   -1.3060 H   0  0  0  0  0  0  0  0  0  0  0  0
   -3.4668    1.6938    0.2583 H   0  0  0  0  0  0  0  0  0  0  0  0
   -1.5815    0.5395    1.3445 H   0  0  0  0  0  0  0  0  0  0  0  0
   -1.0982   -0.1855   -0.1847 H   0  0  0  0  0  0  0  0  0  0  0  0
   -0.7097    2.0942   -1.0182 H   0  0  0  0  0  0  0  0  0  0  0  0
    1.3937    2.0665   -1.8182 H   0  0  0  0  0  0  0  0  0  0  0  0
    2.3162    1.2649   -3.8921 H   0  0  0  0  0  0  0  0  0  0  0  0
    3.6830   -0.8077   -3.9636 H   0  0  0  0  0  0  0  0  0  0  0  0
    4.0938   -2.0692   -1.9104 H   0  0  0  0  0  0  0  0  0  0  0  0
    4.7854   -2.8028    2.3047 H   0  0  0  0  0  0  0  0  0  0  0  0
    3.3178   -3.7637    2.0042 H   0  0  0  0  0  0  0  0  0  0  0  0
    4.8418   -4.1922    1.2027 H   0  0  0  0  0  0  0  0  0  0  0  0
    2.8112   -1.6121    2.6691 H   0  0  0  0  0  0  0  0  0  0  0  0
    1.4299    0.3740    2.7400 H   0  0  0  0  0  0  0  0  0  0  0  0
 16 15  1  0
 16 17  2  0
 15 14  2  0
 17 18  1  0
 14 13  1  0
 18 13  1  0
 18 19  2  0
 13 12  2  0
 11  9  2  0
 20 19  1  0
 20 21  1  0
 19 22  1  0
 12  9  1  0
 12 23  1  0
  9  8  1  6
  9 10  2  0
  8  7  1  0
 22 23  2  0
  7  6  1  0
  6  5  1  0
  4  5  1  0
  4  2  1  0
  2  1  2  0
  2  3  1  0
  3 24  1  0
  4 25  1  0
  4 26  1  0
  5 27  1  0
  5 28  1  0
  6 29  1  0
  6 30  1  0
  7 31  1  0
  7 32  1  0
  8 33  1  0
 14 34  1  0
 15 35  1  0
 16 36  1  0
 17 37  1  0
 21 38  1  0
 21 39  1  0
 21 40  1  0
 22 41  1  0
 23 42  1  0
M  END
