
     RDKit          3D

 28 28  0  0  0  0  0  0  0  0999 V2000
    0.2754   -0.2662   -2.9799 P   0  0  2  0  0  0  0  0  0  0  0  0
    1.7400   -0.1051   -2.8446 O   0  0  0  0  0  0  0  0  0  0  0  0
   -0.2866   -1.7088   -3.3438 O   0  0  0  0  0  0  0  0  0  0  0  0
   -0.2659    0.7694   -4.0659 O   0  0  0  0  0  0  0  0  0  0  0  0
   -0.5685   -0.0591   -1.6430 O   0  0  0  0  0  0  0  0  0  0  0  0
   -0.2704    1.0391   -0.7554 C   0  0  0  0  0  0  0  0  0  0  0  0
    0.1069    0.5166    0.5956 C   0  0  0  0  0  0  0  0  0  0  0  0
    1.4508    0.3533    0.9424 C   0  0  0  0  0  0  0  0  0  0  0  0
    2.4806    0.6456    0.0796 N   0  0  0  0  0  0  0  0  0  0  0  0
    1.8131   -0.0364    2.1691 N   0  0  0  0  0  0  0  0  0  0  0  0
    0.9221   -0.3148    3.0970 C   0  0  0  0  0  0  0  0  0  0  0  0
    1.4070   -0.7354    4.4482 C   0  0  0  0  0  0  0  0  0  0  0  0
   -0.4554   -0.2398    2.8320 C   0  0  0  0  0  0  0  0  0  0  0  0
   -1.2972   -0.5779    3.8137 O   0  0  0  0  0  0  0  0  0  0  0  0
   -0.8593    0.1787    1.5613 C   0  0  0  0  0  0  0  0  0  0  0  0
   -2.2924    0.2394    1.2565 C   0  0  0  0  0  0  0  0  0  0  0  0
   -3.1601   -0.0319    2.0681 O   0  0  0  0  0  0  0  0  0  0  0  0
    0.1141   -2.1086   -4.1277 H   0  0  0  0  0  0  0  0  0  0  0  0
   -1.2103    0.7134   -4.2664 H   0  0  0  0  0  0  0  0  0  0  0  0
   -1.1556    1.6715   -0.7192 H   0  0  0  0  0  0  0  0  0  0  0  0
    0.5346    1.6632   -1.1481 H   0  0  0  0  0  0  0  0  0  0  0  0
    3.3804    0.3449    0.4197 H   0  0  0  0  0  0  0  0  0  0  0  0
    2.3500    0.4206   -0.8976 H   0  0  0  0  0  0  0  0  0  0  0  0
    1.0017   -0.0977    5.2353 H   0  0  0  0  0  0  0  0  0  0  0  0
    1.1010   -1.7578    4.6773 H   0  0  0  0  0  0  0  0  0  0  0  0
    2.4926   -0.6858    4.4875 H   0  0  0  0  0  0  0  0  0  0  0  0
   -2.2121   -0.4737    3.4867 H   0  0  0  0  0  0  0  0  0  0  0  0
   -2.5849    0.5283    0.2400 H   0  0  0  0  0  0  0  0  0  0  0  0
  1  2  2  0
  1  3  1  6
  1  4  1  0
  1  5  1  0
  3 18  1  0
  4 19  1  0
  5  6  1  0
  6  7  1  0
  6 20  1  0
  6 21  1  0
  7  8  2  0
  7 15  1  0
  8  9  1  0
  8 10  1  0
  9 22  1  0
  9 23  1  0
 10 11  2  0
 11 12  1  0
 11 13  1  0
 12 24  1  0
 12 25  1  0
 12 26  1  0
 13 14  1  0
 13 15  2  0
 14 27  1  0
 15 16  1  0
 16 17  2  0
 16 28  1  0
M  END
