
     RDKit          3D

 55 59  0  0  0  0  0  0  0  0999 V2000
    4.7401    4.4185   -0.8801 C   0  0  0  0  0  0  0  0  0  0  0  0
    3.6620    2.3329   -0.5499 C   0  0  0  0  0  0  0  0  0  0  0  0
    4.7152    1.6178   -1.1161 C   0  0  0  0  0  0  0  0  0  0  0  0
    4.6471    0.2352   -1.1942 C   0  0  0  0  0  0  0  0  0  0  0  0
    3.5306   -0.4405   -0.7350 C   0  0  0  0  0  0  0  0  0  0  0  0
    2.4643    0.2660   -0.1843 C   0  0  0  0  0  0  0  0  0  0  0  0
    2.5410    1.6429   -0.0840 C   0  0  0  0  0  0  0  0  0  0  0  0
    1.1665   -0.3998    0.1729 C   0  0  0  0  0  0  0  0  0  0  0  0
    1.8093   -0.1756    2.5599 C   0  0  0  0  0  0  0  0  0  0  0  0
    1.1375   -0.7926    3.7788 C   0  0  0  0  0  0  0  0  0  0  0  0
   -0.3438   -0.6702    3.4470 C   0  0  0  0  0  0  0  0  0  0  0  0
   -0.4016   -1.0094    1.9448 C   0  0  1  0  0  0  0  0  0  0  0  0
   -0.4940   -2.5210    1.7366 C   0  0  0  0  0  0  0  0  0  0  0  0
   -1.5216   -0.2617    1.2738 C   0  0  0  0  0  0  0  0  0  0  0  0
   -2.7617    1.3037    0.5426 C   0  0  0  0  0  0  0  0  0  0  0  0
   -3.3388    2.5207    0.1864 C   0  0  0  0  0  0  0  0  0  0  0  0
   -4.5401    2.4902   -0.4937 C   0  0  0  0  0  0  0  0  0  0  0  0
   -5.1513    1.2709   -0.8123 C   0  0  0  0  0  0  0  0  0  0  0  0
   -4.6215    0.0319   -0.4776 C   0  0  0  0  0  0  0  0  0  0  0  0
   -3.4093    0.1027    0.2070 C   0  0  0  0  0  0  0  0  0  0  0  0
   -5.2784   -1.2665   -0.8289 C   0  0  0  0  0  0  0  0  0  0  0  0
    3.7586   -3.7895   -1.4908 C   0  0  0  0  0  0  0  0  0  0  0  0
    3.1161   -3.8181   -0.2493 C   0  0  0  0  0  0  0  0  0  0  0  0
    0.8809   -0.4794    1.4743 N   0  0  0  0  0  0  0  0  0  0  0  0
   -1.5940    1.0383    1.2107 N   0  0  0  0  0  0  0  0  0  0  0  0
   -2.5857   -0.8748    0.6995 N   0  0  0  0  0  0  0  0  0  0  0  0
    3.4836   -1.8483   -0.8027 N   0  0  0  0  0  0  0  0  0  0  0  0
    3.9752   -2.5267   -1.8140 N   0  0  0  0  0  0  0  0  0  0  0  0
    2.9635   -2.5723    0.1612 N   0  0  0  0  0  0  0  0  0  0  0  0
    3.6342    3.6663   -0.4154 O   0  0  0  0  0  0  0  0  0  0  0  0
    0.4114   -0.7650   -0.7165 O   0  0  0  0  0  0  0  0  0  0  0  0
   -6.6582    1.3246   -1.6801 Cl  0  0  0  0  0  0  0  0  0  0  0  0
    4.5129    5.4604   -0.6708 H   0  0  0  0  0  0  0  0  0  0  0  0
    5.6622    4.1476   -0.3603 H   0  0  0  0  0  0  0  0  0  0  0  0
    4.8893    4.2985   -1.9559 H   0  0  0  0  0  0  0  0  0  0  0  0
    5.6008    2.1117   -1.4898 H   0  0  0  0  0  0  0  0  0  0  0  0
    5.4794   -0.3135   -1.6134 H   0  0  0  0  0  0  0  0  0  0  0  0
    1.7135    2.1999    0.3404 H   0  0  0  0  0  0  0  0  0  0  0  0
    1.9211    0.9040    2.6849 H   0  0  0  0  0  0  0  0  0  0  0  0
    2.7933   -0.5986    2.3594 H   0  0  0  0  0  0  0  0  0  0  0  0
    1.4270   -1.8386    3.8928 H   0  0  0  0  0  0  0  0  0  0  0  0
    1.4078   -0.2743    4.6976 H   0  0  0  0  0  0  0  0  0  0  0  0
   -0.9838   -1.3307    4.0313 H   0  0  0  0  0  0  0  0  0  0  0  0
   -0.6783    0.3564    3.6061 H   0  0  0  0  0  0  0  0  0  0  0  0
   -1.4200   -2.9130    2.1598 H   0  0  0  0  0  0  0  0  0  0  0  0
   -0.4458   -2.7956    0.6843 H   0  0  0  0  0  0  0  0  0  0  0  0
    0.3316   -3.0152    2.2469 H   0  0  0  0  0  0  0  0  0  0  0  0
   -2.8648    3.4619    0.4305 H   0  0  0  0  0  0  0  0  0  0  0  0
   -5.0188    3.4148   -0.7860 H   0  0  0  0  0  0  0  0  0  0  0  0
   -5.3081   -1.4129   -1.9096 H   0  0  0  0  0  0  0  0  0  0  0  0
   -4.7533   -2.1167   -0.3976 H   0  0  0  0  0  0  0  0  0  0  0  0
   -6.3066   -1.3028   -0.4693 H   0  0  0  0  0  0  0  0  0  0  0  0
    4.0526   -4.5993   -2.1375 H   0  0  0  0  0  0  0  0  0  0  0  0
    2.7826   -4.6555    0.3403 H   0  0  0  0  0  0  0  0  0  0  0  0
   -2.7202   -1.8696    0.6160 H   0  0  0  0  0  0  0  0  0  0  0  0
 29 23  2  0
 29 27  1  0
 23 22  1  0
  4  3  1  0
  4  5  2  0
  3  2  2  0
  1 30  1  0
 27  5  1  0
 27 28  1  0
  5  6  1  0
 22 28  2  0
  2 30  1  0
  2  7  1  0
 17 16  2  0
 17 18  1  0
 16 15  1  0
 32 18  1  0
 18 19  2  0
  7  6  2  0
  6  8  1  0
 15 25  1  0
 15 20  2  0
 25 14  2  0
 19 20  1  0
 19 21  1  0
 20 26  1  0
  8 31  2  0
  8 24  1  0
 12 13  1  1
 14 26  1  0
 14 12  1  0
 24 12  1  0
 24  9  1  0
 12 11  1  0
  9 10  1  0
 11 10  1  0
  1 33  1  0
  1 34  1  0
  1 35  1  0
  3 36  1  0
  4 37  1  0
  7 38  1  0
  9 39  1  0
  9 40  1  0
 10 41  1  0
 10 42  1  0
 11 43  1  0
 11 44  1  0
 13 45  1  0
 13 46  1  0
 13 47  1  0
 16 48  1  0
 17 49  1  0
 21 50  1  0
 21 51  1  0
 21 52  1  0
 22 53  1  0
 23 54  1  0
 26 55  1  0
M  END
