
     RDKit          3D

 30 32  0  0  0  0  0  0  0  0999 V2000
   -3.7041    3.0596   -0.0075 Cl  0  0  0  0  0  0  0  0  0  0  0  0
   -2.0417    2.5735   -0.0082 C   0  0  0  0  0  0  0  0  0  0  0  0
   -1.7440    1.2153   -0.0050 C   0  0  0  0  0  0  0  0  0  0  0  0
   -1.0544    3.5491   -0.0117 C   0  0  0  0  0  0  0  0  0  0  0  0
    0.2842    3.1756   -0.0116 C   0  0  0  0  0  0  0  0  0  0  0  0
    0.6052    1.8310   -0.0084 C   0  0  0  0  0  0  0  0  0  0  0  0
    1.9089    1.1680   -0.0083 C   0  0  0  0  0  0  0  0  0  0  0  0
    3.1945    1.6804   -0.0125 C   0  0  0  0  0  0  0  0  0  0  0  0
    4.2676    0.7978   -0.0124 C   0  0  0  0  0  0  0  0  0  0  0  0
   -0.4060    0.8536   -0.0049 C   0  0  0  0  0  0  0  0  0  0  0  0
    0.2508   -0.4654   -0.0013 C   0  0  0  0  0  0  0  0  0  0  0  0
    1.6996   -0.2150   -0.0044 C   0  0  0  0  0  0  0  0  0  0  0  0
    2.7548   -1.1068   -0.0044 C   0  0  0  0  0  0  0  0  0  0  0  0
    4.0373   -0.5735   -0.0086 C   0  0  0  0  0  0  0  0  0  0  0  0
    5.3927   -1.6519   -0.0104 Cl  0  0  0  0  0  0  0  0  0  0  0  0
   -0.2091   -1.6534    0.0023 N   0  0  0  0  0  0  0  0  0  0  0  0
   -1.5543   -1.6974    0.0039 O   0  0  0  0  0  0  0  0  0  0  0  0
   -2.0104   -3.0304    0.0054 C   0  0  0  0  0  0  0  0  0  0  0  0
   -3.5171   -2.9785   -0.0031 C   0  0  0  0  0  0  0  0  0  0  0  0
   -4.0181   -4.2026    0.0208 O   0  0  0  0  0  0  0  0  0  0  0  0
   -4.1690   -1.9697   -0.0304 O   0  0  0  0  0  0  0  0  0  0  0  0
   -2.5389    0.4849   -0.0026 H   0  0  0  0  0  0  0  0  0  0  0  0
   -1.3244    4.5963   -0.0131 H   0  0  0  0  0  0  0  0  0  0  0  0
    1.0524    3.9379   -0.0140 H   0  0  0  0  0  0  0  0  0  0  0  0
    3.3765    2.7471   -0.0156 H   0  0  0  0  0  0  0  0  0  0  0  0
    5.2807    1.1760   -0.0145 H   0  0  0  0  0  0  0  0  0  0  0  0
    2.5939   -2.1767   -0.0025 H   0  0  0  0  0  0  0  0  0  0  0  0
   -1.6589   -3.5738   -0.8777 H   0  0  0  0  0  0  0  0  0  0  0  0
   -1.6639   -3.5712    0.8919 H   0  0  0  0  0  0  0  0  0  0  0  0
   -4.9868   -4.1703    0.0079 H   0  0  0  0  0  0  0  0  0  0  0  0
 21 19  2  0
 20 19  1  0
 19 18  1  0
 18 17  1  0
 17 16  1  0
 16 11  2  0
 11 12  1  0
 11 10  1  0
 13 12  1  0
 13 14  2  0
  3 10  1  0
  3  2  2  0
 12  7  2  0
 10  6  2  0
  1  2  1  0
 15 14  1  0
 14  9  1  0
  2  4  1  0
  7  6  1  0
  7  8  1  0
  6  5  1  0
  9  8  2  0
  4  5  2  0
  3 22  1  0
  4 23  1  0
  5 24  1  0
  8 25  1  0
  9 26  1  0
 13 27  1  0
 18 28  1  0
 18 29  1  0
 20 30  1  0
M  END
