
     RDKit          3D

 52 54  0  0  0  0  0  0  0  0999 V2000
    1.6911    1.8019    2.1181 C   0  0  0  0  0  0  0  0  0  0  0  0
    4.8866    0.1629    0.9385 C   0  0  0  0  0  0  0  0  0  0  0  0
    3.8924    1.2894   -0.9300 C   0  0  0  0  0  0  0  0  0  0  0  0
    5.7650   -1.0269   -1.9534 C   0  0  0  0  0  0  0  0  0  0  0  0
    6.2916   -0.8670    1.6587 Br  0  0  0  0  0  0  0  0  0  0  0  0
   -3.0973   -0.6825   -0.7810 C   0  0  0  0  0  0  0  0  0  0  0  0
   -3.8958    0.4663   -0.7325 C   0  0  0  0  0  0  0  0  0  0  0  0
   -3.4701    1.6088   -0.0944 C   0  0  0  0  0  0  0  0  0  0  0  0
   -2.2212    1.6537    0.5236 C   0  0  0  0  0  0  0  0  0  0  0  0
   -1.4148    0.5238    0.4757 C   0  0  0  0  0  0  0  0  0  0  0  0
   -1.8526   -0.6326   -0.1711 C   0  0  0  0  0  0  0  0  0  0  0  0
   -1.7497    2.9007    1.2180 C   0  0  0  0  0  0  0  0  0  0  0  0
   -0.5836    2.6107    2.1451 C   0  0  0  0  0  0  0  0  0  0  0  0
   -0.0635    0.5105    1.1371 C   0  0  0  0  0  0  0  0  0  0  0  0
    2.8123    1.3212    1.2303 C   0  0  0  0  0  0  0  0  0  0  0  0
    3.8358    0.5540    1.7607 C   0  0  0  0  0  0  0  0  0  0  0  0
    4.9424    0.5168   -0.3997 C   0  0  0  0  0  0  0  0  0  0  0  0
    2.8435    1.6871   -0.1138 C   0  0  0  0  0  0  0  0  0  0  0  0
    2.9598    2.3271   -2.8429 C   0  0  0  0  0  0  0  0  0  0  0  0
   -2.8355   -2.9250   -1.4851 C   0  0  0  0  0  0  0  0  0  0  0  0
    0.4203    1.8423    1.4325 N   0  0  0  0  0  0  0  0  0  0  0  0
   -6.7541    1.3309    0.2808 N   0  0  0  0  0  0  0  0  0  0  0  0
    5.9818    0.1548   -1.1866 O   0  0  0  0  0  0  0  0  0  0  0  0
   -3.6026   -1.7376   -1.4340 O   0  0  0  0  0  0  0  0  0  0  0  0
   -5.1133    0.4396   -1.3926 O   0  0  0  0  0  0  0  0  0  0  0  0
   -6.0656   -1.0441    0.3962 O   0  0  0  0  0  0  0  0  0  0  0  0
   -7.3740   -0.3048   -1.6121 O   0  0  0  0  0  0  0  0  0  0  0  0
   -6.4230   -0.0275   -0.5630 S   0  0  1  0  0  0  0  0  0  0  0  0
    1.6614    1.1784    3.0270 H   0  0  0  0  0  0  0  0  0  0  0  0
    1.9267    2.8171    2.4507 H   0  0  0  0  0  0  0  0  0  0  0  0
    5.5930   -1.8941   -1.3114 H   0  0  0  0  0  0  0  0  0  0  0  0
    4.9203   -0.9183   -2.6358 H   0  0  0  0  0  0  0  0  0  0  0  0
    6.6683   -1.1961   -2.5355 H   0  0  0  0  0  0  0  0  0  0  0  0
   -4.1177    2.4769   -0.0778 H   0  0  0  0  0  0  0  0  0  0  0  0
   -1.1967   -1.4941   -0.1918 H   0  0  0  0  0  0  0  0  0  0  0  0
   -1.4422    3.6409    0.4735 H   0  0  0  0  0  0  0  0  0  0  0  0
   -2.5681    3.3522    1.7832 H   0  0  0  0  0  0  0  0  0  0  0  0
   -0.1405    3.5502    2.4795 H   0  0  0  0  0  0  0  0  0  0  0  0
   -0.9359    2.0828    3.0468 H   0  0  0  0  0  0  0  0  0  0  0  0
   -0.1233   -0.1057    2.0530 H   0  0  0  0  0  0  0  0  0  0  0  0
    0.6494    0.0055    0.4804 H   0  0  0  0  0  0  0  0  0  0  0  0
    3.8100    0.2584    2.8019 H   0  0  0  0  0  0  0  0  0  0  0  0
    2.0222    2.2738   -0.5036 H   0  0  0  0  0  0  0  0  0  0  0  0
    2.0055    1.7967   -2.7896 H   0  0  0  0  0  0  0  0  0  0  0  0
    2.8399    3.3168   -2.3952 H   0  0  0  0  0  0  0  0  0  0  0  0
    3.2384    2.4453   -3.8867 H   0  0  0  0  0  0  0  0  0  0  0  0
   -1.8854   -2.7743   -2.0035 H   0  0  0  0  0  0  0  0  0  0  0  0
   -2.6358   -3.3225   -0.4869 H   0  0  0  0  0  0  0  0  0  0  0  0
   -3.4265   -3.6490   -2.0399 H   0  0  0  0  0  0  0  0  0  0  0  0
   -7.2001    2.0575   -0.2685 H   0  0  0  0  0  0  0  0  0  0  0  0
   -7.2628    1.1433    1.1375 H   0  0  0  0  0  0  0  0  0  0  0  0
    4.0040    1.5933   -2.2320 O   0  0  0  0  0  0  0  0  0  0  0  0
  5  2  1  0
  2 16  2  0
  2 17  1  0
  4 23  1  0
 23 17  1  0
 16 15  1  0
 17  3  2  0
 15  1  1  0
 15 18  2  0
  3 18  1  0
  3 52  1  0
  1 21  1  0
 19 52  1  0
 21 13  1  0
 21 14  1  0
 13 12  1  0
 14 10  1  0
 12  9  1  0
 10  9  2  0
 10 11  1  0
  9  8  1  0
 11  6  2  0
  8  7  2  0
  6  7  1  0
  6 24  1  0
 20 24  1  0
  7 25  1  0
 28 25  1  6
 27 28  2  0
 28 22  1  0
 28 26  2  0
  1 29  1  0
  1 30  1  0
  4 31  1  0
  4 32  1  0
  4 33  1  0
  8 34  1  0
 11 35  1  0
 12 36  1  0
 12 37  1  0
 13 38  1  0
 13 39  1  0
 14 40  1  0
 14 41  1  0
 16 42  1  0
 18 43  1  0
 19 44  1  0
 19 45  1  0
 19 46  1  0
 20 47  1  0
 20 48  1  0
 20 49  1  0
 22 50  1  0
 22 51  1  0
M  END
