
     RDKit          3D

 43 45  0  0  0  0  0  0  0  0999 V2000
   -4.2083    1.9464    0.1856 C   0  0  0  0  0  0  0  0  0  0  0  0
   -4.0639    1.1779    1.3967 C   0  0  0  0  0  0  0  0  0  0  0  0
   -3.0685    0.2828    1.4958 C   0  0  0  0  0  0  0  0  0  0  0  0
   -2.1680    0.0389    0.4978 N   0  0  0  0  0  0  0  0  0  0  0  0
   -3.2506    1.6466   -0.7718 N   0  0  0  0  0  0  0  0  0  0  0  0
    5.0643    2.1947   -0.0926 C   0  0  0  0  0  0  0  0  0  0  0  0
    3.9277    2.0280   -1.0928 C   0  0  0  0  0  0  0  0  0  0  0  0
    3.4233    0.5931   -1.0953 C   0  0  0  0  0  0  0  0  0  0  0  0
    4.6314    1.6835    1.2757 C   0  0  0  0  0  0  0  0  0  0  0  0
    4.1006    0.2612    1.1793 C   0  0  0  0  0  0  0  0  0  0  0  0
    3.0024    0.1764    0.2316 N   0  0  0  0  0  0  0  0  0  0  0  0
    2.3933   -1.1380    0.2239 C   0  0  0  0  0  0  0  0  0  0  0  0
    0.9683   -1.1243   -0.2882 C   0  0  2  0  0  0  0  0  0  0  0  0
    0.1473   -0.3760    0.6070 O   0  0  0  0  0  0  0  0  0  0  0  0
    0.3241   -2.5051   -0.3370 C   0  0  2  0  0  0  0  0  0  0  0  0
    0.6993   -3.1743   -1.5085 O   0  0  0  0  0  0  0  0  0  0  0  0
   -1.1598   -2.1553   -0.2352 C   0  0  1  0  0  0  0  0  0  0  0  0
   -1.9890   -3.1378    0.3213 O   0  0  0  0  0  0  0  0  0  0  0  0
   -1.1162   -0.9534    0.7103 C   0  0  2  0  0  0  0  0  0  0  0  0
   -5.0589    2.7885   -0.0330 O   0  0  0  0  0  0  0  0  0  0  0  0
   -2.2292    0.7363   -0.6942 C   0  0  0  0  0  0  0  0  0  0  0  0
   -1.4510    0.5632   -1.6071 O   0  0  0  0  0  0  0  0  0  0  0  0
   -4.7491    1.3312    2.2155 H   0  0  0  0  0  0  0  0  0  0  0  0
   -2.9313   -0.3012    2.3952 H   0  0  0  0  0  0  0  0  0  0  0  0
   -3.2989    2.1618   -1.6428 H   0  0  0  0  0  0  0  0  0  0  0  0
    5.3802    3.2385   -0.0343 H   0  0  0  0  0  0  0  0  0  0  0  0
    3.1032    2.6994   -0.8350 H   0  0  0  0  0  0  0  0  0  0  0  0
    4.2533    2.2953   -2.1006 H   0  0  0  0  0  0  0  0  0  0  0  0
    2.5821    0.5036   -1.7852 H   0  0  0  0  0  0  0  0  0  0  0  0
    4.2186   -0.0697   -1.4835 H   0  0  0  0  0  0  0  0  0  0  0  0
    5.4641    1.7114    1.9820 H   0  0  0  0  0  0  0  0  0  0  0  0
    3.8456    2.3287    1.6799 H   0  0  0  0  0  0  0  0  0  0  0  0
    4.9283   -0.4184    0.9055 H   0  0  0  0  0  0  0  0  0  0  0  0
    3.7409   -0.0639    2.1585 H   0  0  0  0  0  0  0  0  0  0  0  0
    2.9703   -1.8624   -0.3764 H   0  0  0  0  0  0  0  0  0  0  0  0
    2.3802   -1.5261    1.2465 H   0  0  0  0  0  0  0  0  0  0  0  0
    0.9170   -0.6764   -1.2883 H   0  0  0  0  0  0  0  0  0  0  0  0
    0.6147   -3.0724    0.5604 H   0  0  0  0  0  0  0  0  0  0  0  0
    0.4982   -4.1095   -1.4099 H   0  0  0  0  0  0  0  0  0  0  0  0
   -1.5071   -1.8570   -1.2300 H   0  0  0  0  0  0  0  0  0  0  0  0
   -2.2252   -3.7658   -0.3674 H   0  0  0  0  0  0  0  0  0  0  0  0
   -1.2775   -1.3109    1.7329 H   0  0  0  0  0  0  0  0  0  0  0  0
    5.9332    1.6217   -0.4341 H   0  0  0  0  0  0  0  0  0  0  0  0
  1  2  1  0
  1  5  1  0
  1 20  2  0
  2  3  2  0
  3  4  1  0
  4 19  1  0
  4 21  1  0
  5 21  1  0
  6  7  1  0
  6  9  1  0
  7  8  1  0
  8 11  1  0
  9 10  1  0
 10 11  1  0
 11 12  1  0
 12 13  1  0
 13 14  1  0
 13 15  1  0
 14 19  1  0
 15 16  1  0
 15 17  1  0
 17 18  1  0
 17 19  1  0
 21 22  2  0
  2 23  1  0
  3 24  1  0
  5 25  1  0
  6 43  1  0
  6 26  1  0
  7 27  1  0
  7 28  1  0
  8 29  1  0
  8 30  1  0
  9 31  1  0
  9 32  1  0
 10 33  1  0
 10 34  1  0
 12 35  1  0
 12 36  1  0
 13 37  1  6
 15 38  1  1
 16 39  1  0
 17 40  1  6
 18 41  1  0
 19 42  1  1
M  END
