
     RDKit          3D

 49 48  0  0  0  0  0  0  0  0999 V2000
    7.6485   -0.7061    0.2827 O   0  0  0  0  0  0  0  0  0  0  0  0
    6.7600    0.0214    0.6499 C   0  0  0  0  0  0  0  0  0  0  0  0
    6.7220    0.5737    1.8573 O   0  0  0  0  0  0  0  0  0  0  0  0
    5.5487    0.4004   -0.1928 C   0  0  1  0  0  0  0  0  0  0  0  0
    5.7091    0.1113   -1.5966 N   0  0  0  0  0  0  0  0  0  0  0  0
    4.3108   -0.3123    0.3695 C   0  0  0  0  0  0  0  0  0  0  0  0
    3.0423    0.1219   -0.3452 C   0  0  0  0  0  0  0  0  0  0  0  0
    1.8121   -0.6038    0.1447 C   0  0  0  0  0  0  0  0  0  0  0  0
    1.8520   -1.6242    0.8139 O   0  0  0  0  0  0  0  0  0  0  0  0
    0.6365   -0.0443   -0.2147 N   0  0  0  0  0  0  0  0  0  0  0  0
   -0.6045   -0.7163    0.0544 C   0  0  2  0  0  0  0  0  0  0  0  0
   -0.6909   -2.0378   -0.7192 C   0  0  0  0  0  0  0  0  0  0  0  0
   -0.1816   -2.1727   -1.8176 O   0  0  0  0  0  0  0  0  0  0  0  0
   -1.4049   -2.9922   -0.1108 N   0  0  0  0  0  0  0  0  0  0  0  0
   -1.6494   -4.2655   -0.7291 C   0  0  0  0  0  0  0  0  0  0  0  0
   -2.5174   -5.1189    0.1587 C   0  0  0  0  0  0  0  0  0  0  0  0
   -2.9252   -4.7825    1.2409 O   0  0  0  0  0  0  0  0  0  0  0  0
   -2.7679   -6.2863   -0.4062 O   0  0  0  0  0  0  0  0  0  0  0  0
   -1.7819    0.1610   -0.3535 C   0  0  0  0  0  0  0  0  0  0  0  0
   -1.6968    1.7322    0.5556 S   0  0  0  0  0  0  0  0  0  0  0  0
   -3.2722    2.4906    0.0215 C   0  0  1  0  0  0  0  0  0  0  0  0
   -4.3517    1.9506    0.9266 C   0  0  0  0  0  0  0  0  0  0  0  0
   -5.0289    0.9908    0.6538 O   0  0  0  0  0  0  0  0  0  0  0  0
   -4.4400    2.6154    2.0676 O   0  0  0  0  0  0  0  0  0  0  0  0
   -3.1224    4.0029    0.0497 C   0  0  0  0  0  0  0  0  0  0  0  0
   -2.2126    4.4945   -1.0479 C   0  0  0  0  0  0  0  0  0  0  0  0
   -1.9840    3.8984   -2.0691 O   0  0  0  0  0  0  0  0  0  0  0  0
   -1.7223    5.6948   -0.7718 O   0  0  0  0  0  0  0  0  0  0  0  0
    7.4812    0.2797    2.3826 H   0  0  0  0  0  0  0  0  0  0  0  0
    5.4005    1.4796   -0.0800 H   0  0  0  0  0  0  0  0  0  0  0  0
    6.4796    0.6415   -1.9821 H   0  0  0  0  0  0  0  0  0  0  0  0
    5.9411   -0.8657   -1.7281 H   0  0  0  0  0  0  0  0  0  0  0  0
    4.4455   -1.3927    0.2714 H   0  0  0  0  0  0  0  0  0  0  0  0
    4.2217   -0.1031    1.4364 H   0  0  0  0  0  0  0  0  0  0  0  0
    2.8972    1.2005   -0.2370 H   0  0  0  0  0  0  0  0  0  0  0  0
    3.1390   -0.0598   -1.4191 H   0  0  0  0  0  0  0  0  0  0  0  0
    0.6416    0.7079   -0.8864 H   0  0  0  0  0  0  0  0  0  0  0  0
   -0.6805   -0.9183    1.1271 H   0  0  0  0  0  0  0  0  0  0  0  0
   -1.7724   -2.8360    0.8157 H   0  0  0  0  0  0  0  0  0  0  0  0
   -2.1455   -4.1475   -1.6967 H   0  0  0  0  0  0  0  0  0  0  0  0
   -0.7154   -4.8015   -0.9236 H   0  0  0  0  0  0  0  0  0  0  0  0
   -3.3247   -6.8297    0.1721 H   0  0  0  0  0  0  0  0  0  0  0  0
   -1.7675    0.3619   -1.4267 H   0  0  0  0  0  0  0  0  0  0  0  0
   -2.7124   -0.3508   -0.1106 H   0  0  0  0  0  0  0  0  0  0  0  0
   -3.4814    2.1542   -0.9943 H   0  0  0  0  0  0  0  0  0  0  0  0
   -5.1077    2.2094    2.6409 H   0  0  0  0  0  0  0  0  0  0  0  0
   -4.0993    4.4710   -0.1159 H   0  0  0  0  0  0  0  0  0  0  0  0
   -2.7730    4.3611    1.0186 H   0  0  0  0  0  0  0  0  0  0  0  0
   -1.1824    6.0117   -1.5117 H   0  0  0  0  0  0  0  0  0  0  0  0
  1  2  2  0
  2  3  1  0
  2  4  1  0
  3 29  1  0
  4  5  1  0
  4  6  1  0
  4 30  1  6
  5 31  1  0
  5 32  1  0
  6  7  1  0
  6 33  1  0
  6 34  1  0
  7  8  1  0
  7 35  1  0
  7 36  1  0
  8  9  2  0
  8 10  1  0
 10 11  1  0
 10 37  1  0
 11 12  1  0
 11 19  1  0
 11 38  1  1
 12 13  2  0
 12 14  1  0
 14 15  1  0
 14 39  1  0
 15 16  1  0
 15 40  1  0
 15 41  1  0
 16 17  2  0
 16 18  1  0
 18 42  1  0
 19 20  1  0
 19 43  1  0
 19 44  1  0
 20 21  1  0
 21 22  1  0
 21 25  1  0
 21 45  1  6
 22 23  2  0
 22 24  1  0
 24 46  1  0
 25 26  1  0
 25 47  1  0
 25 48  1  0
 26 27  2  0
 26 28  1  0
 28 49  1  0
M  END
