
     RDKit          3D

 65 69  0  0  0  0  0  0  0  0999 V2000
    3.6228   -0.2971   -0.7631 N   0  0  0  0  0  0  0  0  0  0  0  0
    2.2523    2.9725   -1.3371 N   0  0  0  0  0  0  0  0  0  0  0  0
    0.5734    1.7715   -0.8541 C   0  0  0  0  0  0  0  0  0  0  0  0
    0.9195    3.0068   -1.1780 N   0  0  0  0  0  0  0  0  0  0  0  0
   -0.7272    1.3595   -0.6033 N   0  0  0  0  0  0  0  0  0  0  0  0
   -1.8534    2.1270   -0.5921 C   0  0  0  0  0  0  0  0  0  0  0  0
   -3.1108    1.4101   -0.2675 C   0  0  0  0  0  0  0  0  0  0  0  0
   -1.8395    3.3186   -0.8473 O   0  0  0  0  0  0  0  0  0  0  0  0
   -4.3208    1.9931   -0.6398 C   0  0  0  0  0  0  0  0  0  0  0  0
   -5.5316    1.3822   -0.3871 C   0  0  0  0  0  0  0  0  0  0  0  0
   -4.3782   -0.4296    0.6736 C   0  0  0  0  0  0  0  0  0  0  0  0
   -3.1744    0.1893    0.4046 C   0  0  0  0  0  0  0  0  0  0  0  0
    2.7410    1.7510   -1.1242 C   0  0  0  0  0  0  0  0  0  0  0  0
    1.7026    0.9342   -0.8060 C   0  0  0  0  0  0  0  0  0  0  0  0
    2.1719   -0.4521   -0.5409 C   0  0  0  0  0  0  0  0  0  0  0  0
    4.0531    1.0612   -1.1295 C   0  0  0  0  0  0  0  0  0  0  0  0
   -6.8083   -0.4635    0.5593 N   0  0  0  0  0  0  0  0  0  0  0  0
   -6.8159   -1.9053    0.7884 C   0  0  0  0  0  0  0  0  0  0  0  0
   -8.1528   -2.3935    1.3346 C   0  0  0  0  0  0  0  0  0  0  0  0
   -9.3068   -1.9574    0.5790 N   0  0  0  0  0  0  0  0  0  0  0  0
   -9.2815   -0.5122    0.5226 C   0  0  0  0  0  0  0  0  0  0  0  0
   -8.0062    0.0751   -0.0719 C   0  0  0  0  0  0  0  0  0  0  0  0
   -9.4408   -2.5959   -0.7144 C   0  0  0  0  0  0  0  0  0  0  0  0
   -5.6056    0.1453    0.2860 C   0  0  0  0  0  0  0  0  0  0  0  0
    4.4229   -1.3705   -0.6600 C   0  0  0  0  0  0  0  0  0  0  0  0
    3.9876   -2.4775   -0.3876 O   0  0  0  0  0  0  0  0  0  0  0  0
    6.5255   -0.6160    0.4320 C   0  0  0  0  0  0  0  0  0  0  0  0
    7.1811    0.6091    0.4668 C   0  0  0  0  0  0  0  0  0  0  0  0
    6.4635   -1.3873    1.5913 C   0  0  0  0  0  0  0  0  0  0  0  0
    7.7559    1.0699    1.6452 C   0  0  0  0  0  0  0  0  0  0  0  0
    7.0383   -0.9300    2.7669 C   0  0  0  0  0  0  0  0  0  0  0  0
    5.9227   -1.1401   -0.8568 C   0  0  1  0  0  0  0  0  0  0  0  0
    7.6852    0.3006    2.7973 C   0  0  0  0  0  0  0  0  0  0  0  0
    6.4616   -2.3719   -1.2377 O   0  0  0  0  0  0  0  0  0  0  0  0
    1.7537   -1.1947   -1.2251 H   0  0  0  0  0  0  0  0  0  0  0  0
    4.7457    1.4837   -0.3980 H   0  0  0  0  0  0  0  0  0  0  0  0
   -4.3202    2.9407   -1.1628 H   0  0  0  0  0  0  0  0  0  0  0  0
   -2.2782   -0.3044    0.7606 H   0  0  0  0  0  0  0  0  0  0  0  0
   -6.4231    1.8813   -0.7351 H   0  0  0  0  0  0  0  0  0  0  0  0
   -4.3458   -1.3684    1.2054 H   0  0  0  0  0  0  0  0  0  0  0  0
   -6.5518   -2.4394   -0.1341 H   0  0  0  0  0  0  0  0  0  0  0  0
   -6.0647   -2.1687    1.5306 H   0  0  0  0  0  0  0  0  0  0  0  0
   -8.0528    1.1512    0.0913 H   0  0  0  0  0  0  0  0  0  0  0  0
   -7.9772   -0.0822   -1.1592 H   0  0  0  0  0  0  0  0  0  0  0  0
   -8.1276   -3.4844    1.3792 H   0  0  0  0  0  0  0  0  0  0  0  0
   -8.2660   -2.0335    2.3622 H   0  0  0  0  0  0  0  0  0  0  0  0
  -10.1311   -0.1462   -0.0577 H   0  0  0  0  0  0  0  0  0  0  0  0
   -9.4046   -0.1326    1.5420 H   0  0  0  0  0  0  0  0  0  0  0  0
   -9.5094   -3.6764   -0.5792 H   0  0  0  0  0  0  0  0  0  0  0  0
  -10.3653   -2.2642   -1.1896 H   0  0  0  0  0  0  0  0  0  0  0  0
   -8.6220   -2.4062   -1.4213 H   0  0  0  0  0  0  0  0  0  0  0  0
    6.0900   -0.3940   -1.6484 H   0  0  0  0  0  0  0  0  0  0  0  0
    7.2506    1.2077   -0.4345 H   0  0  0  0  0  0  0  0  0  0  0  0
    5.9643   -2.3483    1.5785 H   0  0  0  0  0  0  0  0  0  0  0  0
    8.2646    2.0252    1.6582 H   0  0  0  0  0  0  0  0  0  0  0  0
    6.9812   -1.5345    3.6629 H   0  0  0  0  0  0  0  0  0  0  0  0
    8.1345    0.6548    3.7159 H   0  0  0  0  0  0  0  0  0  0  0  0
    8.1176   -3.2812   -1.9580 H   0  0  0  0  0  0  0  0  0  0  0  0
    7.9681   -1.5800   -2.4385 H   0  0  0  0  0  0  0  0  0  0  0  0
    8.4672   -1.9961   -0.7900 H   0  0  0  0  0  0  0  0  0  0  0  0
   -0.8353    0.3652   -0.4896 H   0  0  0  0  0  0  0  0  0  0  0  0
    2.7426    3.8147   -1.5894 H   0  0  0  0  0  0  0  0  0  0  0  0
    1.9720   -0.7936    0.4780 H   0  0  0  0  0  0  0  0  0  0  0  0
    4.5372    1.0840   -2.1092 H   0  0  0  0  0  0  0  0  0  0  0  0
    7.8164   -2.2916   -1.6187 C   0  0  0  0  0  0  0  0  0  0  0  0
  1 15  1  0
  1 16  1  0
  1 25  1  0
  2  4  1  0
  2 62  1  0
  2 13  1  0
  3  4  2  0
  3  5  1  0
  3 14  1  0
  5  6  1  0
  5 61  1  0
  6  7  1  0
  6  8  2  0
  7  9  2  0
  7 12  1  0
  9 10  1  0
  9 37  1  0
 10 24  2  0
 10 39  1  0
 11 12  2  0
 11 24  1  0
 11 40  1  0
 12 38  1  0
 13 14  2  0
 13 16  1  0
 14 15  1  0
 15 35  1  0
 15 63  1  0
 16 36  1  0
 16 64  1  0
 17 18  1  0
 17 22  1  0
 17 24  1  0
 18 19  1  0
 18 41  1  0
 18 42  1  0
 19 20  1  0
 19 45  1  0
 19 46  1  0
 20 21  1  0
 20 23  1  0
 21 22  1  0
 21 47  1  0
 21 48  1  0
 22 43  1  0
 22 44  1  0
 23 49  1  0
 23 50  1  0
 23 51  1  0
 25 26  2  0
 25 32  1  0
 27 28  2  0
 27 29  1  0
 27 32  1  0
 28 30  1  0
 28 53  1  0
 29 31  2  0
 29 54  1  0
 30 33  2  0
 30 55  1  0
 31 33  1  0
 31 56  1  0
 32 34  1  0
 32 52  1  6
 33 57  1  0
 65 34  1  0
 65 58  1  0
 65 59  1  0
 65 60  1  0
M  END
