
     RDKit          3D

 29 31  0  0  0  0  0  0  0  0999 V2000
   -3.2567    0.3283    0.7384 C   0  0  0  0  0  0  0  0  0  0  0  0
   -4.5306   -0.2191    0.7460 C   0  0  0  0  0  0  0  0  0  0  0  0
   -4.7993   -1.3818    0.0367 C   0  0  0  0  0  0  0  0  0  0  0  0
   -3.7814   -2.0021   -0.6758 C   0  0  0  0  0  0  0  0  0  0  0  0
   -2.5044   -1.4641   -0.6825 C   0  0  0  0  0  0  0  0  0  0  0  0
   -2.2296   -0.2868    0.0193 C   0  0  0  0  0  0  0  0  0  0  0  0
   -0.8725    0.2673    0.0082 C   0  0  0  0  0  0  0  0  0  0  0  0
    0.0784   -0.6953   -0.0013 O   0  0  0  0  0  0  0  0  0  0  0  0
    1.3851   -0.3982   -0.0359 C   0  0  0  0  0  0  0  0  0  0  0  0
    2.2718   -1.4705   -0.0425 C   0  0  0  0  0  0  0  0  0  0  0  0
    3.6308   -1.2092   -0.0712 C   0  0  0  0  0  0  0  0  0  0  0  0
    4.5510   -2.1780   -0.0795 O   0  0  0  0  0  0  0  0  0  0  0  0
    4.1033    0.1179   -0.0936 C   0  0  0  0  0  0  0  0  0  0  0  0
    3.2118    1.1566   -0.0873 C   0  0  0  0  0  0  0  0  0  0  0  0
    1.8272    0.9233   -0.0575 C   0  0  0  0  0  0  0  0  0  0  0  0
    0.8608    1.9969   -0.0573 C   0  0  0  0  0  0  0  0  0  0  0  0
    1.1373    3.1942   -0.0901 O   0  0  0  0  0  0  0  0  0  0  0  0
   -0.5336    1.5773   -0.0278 C   0  0  0  0  0  0  0  0  0  0  0  0
   -1.4597    2.5478   -0.0597 O   0  0  0  0  0  0  0  0  0  0  0  0
   -3.0647    1.2232    1.3127 H   0  0  0  0  0  0  0  0  0  0  0  0
   -5.3132    0.2632    1.3164 H   0  0  0  0  0  0  0  0  0  0  0  0
   -5.7956   -1.8040    0.0415 H   0  0  0  0  0  0  0  0  0  0  0  0
   -3.9809   -2.9094   -1.2305 H   0  0  0  0  0  0  0  0  0  0  0  0
   -1.7274   -1.9583   -1.2505 H   0  0  0  0  0  0  0  0  0  0  0  0
    1.8925   -2.4857   -0.0233 H   0  0  0  0  0  0  0  0  0  0  0  0
    4.1373   -3.0494   -0.0701 H   0  0  0  0  0  0  0  0  0  0  0  0
    5.1693    0.3017   -0.1165 H   0  0  0  0  0  0  0  0  0  0  0  0
    3.5722    2.1765   -0.1065 H   0  0  0  0  0  0  0  0  0  0  0  0
   -0.9864    3.3942   -0.0842 H   0  0  0  0  0  0  0  0  0  0  0  0
 17 16  2  0
 14 13  1  0
 14 15  2  0
 13 11  2  0
 16 15  1  0
 16 18  1  0
 15  9  1  0
 11 12  1  0
 11 10  1  0
 19 18  1  0
 18  7  2  0
  9 10  2  0
  9  8  1  0
  7  8  1  0
  7  6  1  0
  6  5  1  0
  6  1  2  0
  5  4  2  0
  1  2  1  0
  4  3  1  0
  2  3  2  0
  1 20  1  0
  2 21  1  0
  3 22  1  0
  4 23  1  0
  5 24  1  0
 10 25  1  0
 12 26  1  0
 13 27  1  0
 14 28  1  0
 19 29  1  0
M  END
