
     RDKit          3D

 53 57  0  0  0  0  0  0  0  0999 V2000
   -0.3540    3.0238    0.7098 C   0  0  0  0  0  0  0  0  0  0  0  0
    0.0758   -0.2752   -0.8780 C   0  0  0  0  0  0  0  0  0  0  0  0
   -1.3811    4.1158   -1.6337 C   0  0  0  0  0  0  0  0  0  0  0  0
   -2.2406    3.6048   -0.6704 C   0  0  0  0  0  0  0  0  0  0  0  0
   -2.2957   -0.8352    1.0637 C   0  0  0  0  0  0  0  0  0  0  0  0
   -1.7221    3.0672    0.4946 C   0  0  0  0  0  0  0  0  0  0  0  0
   -2.7173    1.3061    1.6930 C   0  0  0  0  0  0  0  0  0  0  0  0
   -1.6269   -1.7838    0.0547 C   0  0  1  0  0  0  0  0  0  0  0  0
    0.5093    3.5251   -0.2487 C   0  0  0  0  0  0  0  0  0  0  0  0
   -0.0211    4.0616   -1.4045 C   0  0  0  0  0  0  0  0  0  0  0  0
   -2.5921    2.6329    1.4702 O   0  0  0  0  0  0  0  0  0  0  0  0
   -2.1668    0.4657    0.8488 N   0  0  0  0  0  0  0  0  0  0  0  0
   -1.0284   -1.0589   -1.0475 N   0  0  0  0  0  0  0  0  0  0  0  0
    0.8882   -0.5766    0.3121 C   0  0  0  0  0  0  0  0  0  0  0  0
    2.1851    0.5126    0.7452 S   0  0  0  0  0  0  0  0  0  0  0  0
    3.4727    0.0979   -0.3933 C   0  0  0  0  0  0  0  0  0  0  0  0
    4.5703    0.9507   -0.4806 C   0  0  0  0  0  0  0  0  0  0  0  0
    5.6258    0.6883   -1.3389 C   0  0  0  0  0  0  0  0  0  0  0  0
    5.5918   -0.4465   -2.1343 C   0  0  0  0  0  0  0  0  0  0  0  0
    4.5040   -1.3063   -2.0607 C   0  0  0  0  0  0  0  0  0  0  0  0
    3.4547   -1.0379   -1.1963 C   0  0  0  0  0  0  0  0  0  0  0  0
    4.6205    2.3757    0.5066 Cl  0  0  0  0  0  0  0  0  0  0  0  0
    0.6307   -1.6614    1.0773 C   0  0  0  0  0  0  0  0  0  0  0  0
    1.3551   -2.0463    2.1101 O   0  0  0  0  0  0  0  0  0  0  0  0
   -0.5137   -2.5622    0.7571 C   0  0  0  0  0  0  0  0  0  0  0  0
   -2.6924   -2.7004   -0.4984 C   0  0  0  0  0  0  0  0  0  0  0  0
   -2.6900   -4.0611   -0.4403 C   0  0  0  0  0  0  0  0  0  0  0  0
   -4.0824   -4.7327   -1.1769 S   0  0  0  0  0  0  0  0  0  0  0  0
   -4.6904   -3.1816   -1.5768 C   0  0  0  0  0  0  0  0  0  0  0  0
   -3.8571   -2.1960   -1.1534 C   0  0  0  0  0  0  0  0  0  0  0  0
   -3.0022   -1.3432    2.1423 C   0  0  0  0  0  0  0  0  0  0  0  0
   -3.5813   -0.4420    3.0275 C   0  0  0  0  0  0  0  0  0  0  0  0
   -3.4441    0.9159    2.8145 C   0  0  0  0  0  0  0  0  0  0  0  0
    0.0429    2.5966    1.6211 H   0  0  0  0  0  0  0  0  0  0  0  0
   -1.7697    4.5422   -2.5489 H   0  0  0  0  0  0  0  0  0  0  0  0
   -3.3106    3.6329   -0.8296 H   0  0  0  0  0  0  0  0  0  0  0  0
    1.5795    3.4785   -0.1004 H   0  0  0  0  0  0  0  0  0  0  0  0
   -1.6550   -0.7378   -1.7722 H   0  0  0  0  0  0  0  0  0  0  0  0
    6.4653    1.3685   -1.3837 H   0  0  0  0  0  0  0  0  0  0  0  0
    6.4127   -0.6539   -2.8071 H   0  0  0  0  0  0  0  0  0  0  0  0
    4.4695   -2.1946   -2.6772 H   0  0  0  0  0  0  0  0  0  0  0  0
    2.6162   -1.7192   -1.1418 H   0  0  0  0  0  0  0  0  0  0  0  0
    2.1029   -1.4353    2.2334 H   0  0  0  0  0  0  0  0  0  0  0  0
   -0.8823   -3.0366    1.6672 H   0  0  0  0  0  0  0  0  0  0  0  0
   -0.1429   -3.3608    0.1052 H   0  0  0  0  0  0  0  0  0  0  0  0
   -1.9507   -4.7139   -0.0015 H   0  0  0  0  0  0  0  0  0  0  0  0
   -5.6298   -3.0773   -2.0971 H   0  0  0  0  0  0  0  0  0  0  0  0
   -4.0680   -1.1441   -1.2947 H   0  0  0  0  0  0  0  0  0  0  0  0
   -3.1109   -2.4092    2.2906 H   0  0  0  0  0  0  0  0  0  0  0  0
   -4.1372   -0.8011    3.8832 H   0  0  0  0  0  0  0  0  0  0  0  0
   -3.8777    1.6461    3.4838 H   0  0  0  0  0  0  0  0  0  0  0  0
    0.8170    4.5471   -2.3379 F   0  0  0  0  0  0  0  0  0  0  0  0
    0.4143    0.5585   -1.6976 O   0  0  0  0  0  0  0  0  0  0  0  0
  9  1  2  0
  9 10  1  0
 52 10  1  0
  1  6  1  0
 10  3  2  0
 28 27  1  0
 28 29  1  0
  6 11  1  0
  6  4  2  0
  3  4  1  0
 11  7  1  0
 27 26  2  0
  7 33  1  0
  7 12  2  0
 33 32  2  0
 29 30  2  0
 12  5  1  0
 32 31  1  0
 26 30  1  0
  8 26  1  6
  5 31  2  0
  5  8  1  0
  8 25  1  0
  8 13  1  0
 25 23  1  0
 13  2  1  0
 23 24  1  0
 23 14  2  0
 20 21  2  0
 20 19  1  0
 21 16  1  0
  2 14  1  0
  2 53  2  0
 14 15  1  0
 19 18  2  0
 16 15  1  0
 16 17  2  0
 18 17  1  0
 17 22  1  0
  1 34  1  0
  3 35  1  0
  4 36  1  0
  9 37  1  0
 13 38  1  0
 18 39  1  0
 19 40  1  0
 20 41  1  0
 21 42  1  0
 24 43  1  0
 25 44  1  0
 25 45  1  0
 27 46  1  0
 29 47  1  0
 30 48  1  0
 31 49  1  0
 32 50  1  0
 33 51  1  0
M  END
