
     RDKit          3D

 20 20  0  0  0  0  0  0  0  0999 V2000
   -0.0033   -1.0521   -0.0256 N   0  0  0  0  0  0  0  0  0  0  0  0
   -0.4942   -0.7922    1.2987 C   0  0  0  0  0  0  0  0  0  0  0  0
   -0.1324    0.5521    1.8966 C   0  0  0  0  0  0  0  0  0  0  0  0
    0.6457    1.4140    1.4759 O   0  0  0  0  0  0  0  0  0  0  0  0
   -0.7117   -0.3445   -1.0801 C   0  0  0  0  0  0  0  0  0  0  0  0
   -0.0297   -0.4674   -2.4183 C   0  0  1  0  0  0  0  0  0  0  0  0
   -0.3477    0.5508   -3.4801 C   0  0  0  0  0  0  0  0  0  0  0  0
    0.9992    0.5563   -2.8200 C   0  0  0  0  0  0  0  0  0  0  0  0
   -0.7740    0.8198    3.0667 O   0  0  0  0  0  0  0  0  0  0  0  0
    0.9831   -0.8749   -0.0859 H   0  0  0  0  0  0  0  0  0  0  0  0
   -0.0734   -1.5794    1.9900 H   0  0  0  0  0  0  0  0  0  0  0  0
   -1.6178   -0.8794    1.3086 H   0  0  0  0  0  0  0  0  0  0  0  0
   -1.7424   -0.7968   -1.1544 H   0  0  0  0  0  0  0  0  0  0  0  0
   -0.8374    0.7521   -0.8290 H   0  0  0  0  0  0  0  0  0  0  0  0
    0.1285   -1.5195   -2.7277 H   0  0  0  0  0  0  0  0  0  0  0  0
   -0.4337    0.2130   -4.5276 H   0  0  0  0  0  0  0  0  0  0  0  0
   -1.0603    1.3633   -3.2497 H   0  0  0  0  0  0  0  0  0  0  0  0
    1.2458    1.3702   -2.1145 H   0  0  0  0  0  0  0  0  0  0  0  0
    1.8821    0.2269   -3.3953 H   0  0  0  0  0  0  0  0  0  0  0  0
   -0.5013    1.6917    3.3986 H   0  0  0  0  0  0  0  0  0  0  0  0
  1  2  1  0
  1  5  1  0
  1 10  1  0
  2  3  1  0
  2 11  1  0
  2 12  1  0
  3  4  2  0
  3  9  1  0
  5  6  1  0
  5 13  1  0
  5 14  1  0
  6  7  1  0
  6  8  1  0
  6 15  1  6
  7  8  1  0
  7 16  1  0
  7 17  1  0
  8 18  1  0
  8 19  1  0
  9 20  1  0
M  END
