
     RDKit          3D

 11 10  0  0  0  0  0  0  0  0999 V2000
    0.0458    0.0230    1.2486 C   0  0  0  0  0  0  0  0  0  0  0  0
   -0.7816    0.0321    2.2888 O   0  0  0  0  0  0  0  0  0  0  0  0
    1.2419    0.0120    1.3550 O   0  0  0  0  0  0  0  0  0  0  0  0
   -0.7524    0.0259   -0.0288 C   0  0  0  0  0  0  0  0  0  0  0  0
    0.0277    0.0361   -1.3175 C   0  0  0  0  0  0  0  0  0  0  0  0
    1.2213    0.0793   -1.4420 O   0  0  0  0  0  0  0  0  0  0  0  0
   -0.8146   -0.0042   -2.3450 O   0  0  0  0  0  0  0  0  0  0  0  0
   -0.2737    0.0264    3.1142 H   0  0  0  0  0  0  0  0  0  0  0  0
   -1.4194   -0.8418   -0.0273 H   0  0  0  0  0  0  0  0  0  0  0  0
   -1.4224    0.8916   -0.0213 H   0  0  0  0  0  0  0  0  0  0  0  0
   -0.3198    0.0111   -3.1781 H   0  0  0  0  0  0  0  0  0  0  0  0
  1  2  1  0
  1  3  2  0
  1  4  1  0
  2  8  1  0
  4  5  1  0
  4  9  1  0
  4 10  1  0
  5  6  2  0
  5  7  1  0
  7 11  1  0
M  END
