
     RDKit          3D

 33 35  0  0  0  0  0  0  0  0999 V2000
   -0.2145    0.1629   -1.8538 C   0  0  0  0  0  0  0  0  0  0  0  0
    0.2553    0.0829   -0.5724 N   0  0  0  0  0  0  0  0  0  0  0  0
   -0.8066   -0.0206    0.1858 C   0  0  0  0  0  0  0  0  0  0  0  0
   -1.9599   -0.0169   -0.5340 N   0  0  0  0  0  0  0  0  0  0  0  0
   -1.6197    0.0963   -1.8522 C   0  0  0  0  0  0  0  0  0  0  0  0
   -2.3817    0.1400   -3.0121 C   0  0  0  0  0  0  0  0  0  0  0  0
    0.4722    0.2505   -3.0732 C   0  0  0  0  0  0  0  0  0  0  0  0
   -0.7740   -0.1301    1.6434 C   0  0  0  0  0  0  0  0  0  0  0  0
   -0.2886    0.2840   -4.2338 C   0  0  0  0  0  0  0  0  0  0  0  0
   -1.6882    0.2366   -4.2044 C   0  0  0  0  0  0  0  0  0  0  0  0
    1.9597    0.3682   -3.1066 C   0  0  0  0  0  0  0  0  0  0  0  0
    2.5627   -0.2880   -4.1110 N   0  0  0  0  0  0  0  0  0  0  0  0
    2.5685    1.0328   -2.2815 O   0  0  0  0  0  0  0  0  0  0  0  0
    0.4196    0.1367    2.3028 C   0  0  0  0  0  0  0  0  0  0  0  0
   -1.9044   -0.5007    2.3754 C   0  0  0  0  0  0  0  0  0  0  0  0
    0.4974    0.0437    3.6907 C   0  0  0  0  0  0  0  0  0  0  0  0
    1.6943    0.3261    4.2345 O   0  0  0  0  0  0  0  0  0  0  0  0
   -0.6319   -0.3217    4.4220 C   0  0  0  0  0  0  0  0  0  0  0  0
   -1.8194   -0.5908    3.7528 C   0  0  0  0  0  0  0  0  0  0  0  0
    1.8341    0.2536    5.6402 C   0  0  0  0  0  0  0  0  0  0  0  0
   -2.8997   -0.0551   -0.1725 H   0  0  0  0  0  0  0  0  0  0  0  0
   -3.4626    0.1010   -2.9879 H   0  0  0  0  0  0  0  0  0  0  0  0
    0.2024    0.3771   -5.1944 H   0  0  0  0  0  0  0  0  0  0  0  0
   -2.2356    0.2817   -5.1362 H   0  0  0  0  0  0  0  0  0  0  0  0
    3.5634   -0.2419   -4.2147 H   0  0  0  0  0  0  0  0  0  0  0  0
    2.0652   -0.9219   -4.7120 H   0  0  0  0  0  0  0  0  0  0  0  0
    1.2966    0.4244    1.7369 H   0  0  0  0  0  0  0  0  0  0  0  0
   -2.8419   -0.7358    1.8893 H   0  0  0  0  0  0  0  0  0  0  0  0
   -0.6068   -0.4030    5.4998 H   0  0  0  0  0  0  0  0  0  0  0  0
   -2.6913   -0.8806    4.3240 H   0  0  0  0  0  0  0  0  0  0  0  0
    2.8644    0.5197    5.8612 H   0  0  0  0  0  0  0  0  0  0  0  0
    1.1713    0.9552    6.1531 H   0  0  0  0  0  0  0  0  0  0  0  0
    1.6425   -0.7538    6.0183 H   0  0  0  0  0  0  0  0  0  0  0  0
  1  2  1  0
  1  5  2  0
  1  7  1  0
  2  3  2  0
  3  4  1  0
  3  8  1  0
  4  5  1  0
  4 21  1  0
  5  6  1  0
  6 10  2  0
  6 22  1  0
  7  9  2  0
  7 11  1  0
  8 14  2  0
  8 15  1  0
  9 10  1  0
  9 23  1  0
 10 24  1  0
 11 12  1  0
 11 13  2  0
 12 25  1  0
 12 26  1  0
 14 16  1  0
 14 27  1  0
 15 19  2  0
 15 28  1  0
 16 17  1  0
 16 18  2  0
 17 20  1  0
 18 19  1  0
 18 29  1  0
 19 30  1  0
 20 31  1  0
 20 32  1  0
 20 33  1  0
M  END
