
     RDKit          3D

 62 66  0  0  0  0  0  0  0  0999 V2000
   -0.6262    2.7625   -0.0960 C   0  0  0  0  0  0  0  0  0  0  0  0
   -1.0219    1.9796    1.1559 C   0  0  0  0  0  0  0  0  0  0  0  0
   -1.3107    0.5191    0.8727 C   0  0  0  0  0  0  0  0  0  0  0  0
   -2.4371    0.1118    0.2560 C   0  0  0  0  0  0  0  0  0  0  0  0
   -2.6427   -1.2701   -0.2362 C   0  0  0  0  0  0  0  0  0  0  0  0
   -1.6667   -1.9423   -0.9695 C   0  0  0  0  0  0  0  0  0  0  0  0
   -1.8750   -3.2260   -1.4463 C   0  0  0  0  0  0  0  0  0  0  0  0
   -3.0801   -3.8772   -1.1951 C   0  0  0  0  0  0  0  0  0  0  0  0
   -3.3383   -5.1278   -1.6290 O   0  0  0  0  0  0  0  0  0  0  0  0
   -4.0746   -3.2163   -0.4775 C   0  0  0  0  0  0  0  0  0  0  0  0
   -3.8544   -1.9286   -0.0197 C   0  0  0  0  0  0  0  0  0  0  0  0
   -3.5566    1.0445   -0.0303 C   0  0  0  0  0  0  0  0  0  0  0  0
   -4.2713    1.6688    0.9876 C   0  0  0  0  0  0  0  0  0  0  0  0
   -5.3291    2.5231    0.7105 C   0  0  0  0  0  0  0  0  0  0  0  0
   -5.6965    2.7696   -0.6086 C   0  0  0  0  0  0  0  0  0  0  0  0
   -6.7097    3.5940   -0.9430 O   0  0  0  0  0  0  0  0  0  0  0  0
   -5.0029    2.1392   -1.6405 C   0  0  0  0  0  0  0  0  0  0  0  0
   -3.9564    1.2839   -1.3456 C   0  0  0  0  0  0  0  0  0  0  0  0
   -0.2557   -0.4377    1.2859 C   0  0  0  0  0  0  0  0  0  0  0  0
   -0.5649   -1.5353    2.0901 C   0  0  0  0  0  0  0  0  0  0  0  0
    0.4404   -2.4027    2.4868 C   0  0  0  0  0  0  0  0  0  0  0  0
    1.7570   -2.1867    2.1128 C   0  0  0  0  0  0  0  0  0  0  0  0
    2.0860   -1.0842    1.3207 C   0  0  0  0  0  0  0  0  0  0  0  0
    3.4002   -0.9138    0.9124 N   0  0  0  0  0  0  0  0  0  0  0  0
    4.0461    0.2900    0.6581 C   0  0  0  0  0  0  0  0  0  0  0  0
    3.6450    1.4809    1.2222 C   0  0  0  0  0  0  0  0  0  0  0  0
    4.3380    2.6756    0.9601 C   0  0  0  0  0  0  0  0  0  0  0  0
    5.4481    2.6852    0.1627 C   0  0  0  0  0  0  0  0  0  0  0  0
    5.8979    1.4834   -0.4308 C   0  0  0  0  0  0  0  0  0  0  0  0
    7.0417    1.4618   -1.2637 C   0  0  0  0  0  0  0  0  0  0  0  0
    7.4554    0.3053   -1.8652 C   0  0  0  0  0  0  0  0  0  0  0  0
    6.7313   -0.8868   -1.6693 C   0  0  0  0  0  0  0  0  0  0  0  0
    5.6247   -0.9001   -0.8629 C   0  0  0  0  0  0  0  0  0  0  0  0
    5.1853    0.2745   -0.2076 C   0  0  0  0  0  0  0  0  0  0  0  0
    1.0673   -0.2214    0.9123 C   0  0  0  0  0  0  0  0  0  0  0  0
    0.2605    2.3458   -0.5761 H   0  0  0  0  0  0  0  0  0  0  0  0
   -1.4304    2.7559   -0.8316 H   0  0  0  0  0  0  0  0  0  0  0  0
   -0.4067    3.8012    0.1540 H   0  0  0  0  0  0  0  0  0  0  0  0
   -0.2240    2.0514    1.8976 H   0  0  0  0  0  0  0  0  0  0  0  0
   -1.8890    2.4603    1.6084 H   0  0  0  0  0  0  0  0  0  0  0  0
   -0.7248   -1.4546   -1.1851 H   0  0  0  0  0  0  0  0  0  0  0  0
   -1.0977   -3.7174   -2.0207 H   0  0  0  0  0  0  0  0  0  0  0  0
   -2.5794   -5.4789   -2.1077 H   0  0  0  0  0  0  0  0  0  0  0  0
   -5.0187   -3.7103   -0.2836 H   0  0  0  0  0  0  0  0  0  0  0  0
   -4.6438   -1.4286    0.5283 H   0  0  0  0  0  0  0  0  0  0  0  0
   -4.0070    1.4801    2.0210 H   0  0  0  0  0  0  0  0  0  0  0  0
   -5.8689    2.9907    1.5266 H   0  0  0  0  0  0  0  0  0  0  0  0
   -7.1145    3.9669   -0.1521 H   0  0  0  0  0  0  0  0  0  0  0  0
   -5.2895    2.3198   -2.6691 H   0  0  0  0  0  0  0  0  0  0  0  0
   -3.4328    0.7961   -2.1591 H   0  0  0  0  0  0  0  0  0  0  0  0
   -1.5861   -1.7061    2.4033 H   0  0  0  0  0  0  0  0  0  0  0  0
    0.2017   -3.2548    3.1105 H   0  0  0  0  0  0  0  0  0  0  0  0
    2.5343   -2.8671    2.4404 H   0  0  0  0  0  0  0  0  0  0  0  0
    3.9995   -1.7109    1.0554 H   0  0  0  0  0  0  0  0  0  0  0  0
    2.7972    1.5037    1.8935 H   0  0  0  0  0  0  0  0  0  0  0  0
    3.9899    3.5914    1.4201 H   0  0  0  0  0  0  0  0  0  0  0  0
    5.9891    3.6045   -0.0235 H   0  0  0  0  0  0  0  0  0  0  0  0
    7.5862    2.3852   -1.4210 H   0  0  0  0  0  0  0  0  0  0  0  0
    8.3314    0.3047   -2.5004 H   0  0  0  0  0  0  0  0  0  0  0  0
    7.0456   -1.7947   -2.1672 H   0  0  0  0  0  0  0  0  0  0  0  0
    5.0753   -1.8250   -0.7474 H   0  0  0  0  0  0  0  0  0  0  0  0
    1.3080    0.6147    0.2689 H   0  0  0  0  0  0  0  0  0  0  0  0
  9  8  1  0
  7  8  1  0
  7  6  2  0
  8 10  2  0
  6  5  1  0
 10 11  1  0
  5 11  2  0
  5  4  1  0
  4 12  1  0
  4  3  2  0
 13 12  2  0
 13 14  1  0
 12 18  1  0
  2  3  1  0
  2  1  1  0
 14 15  2  0
 18 17  2  0
 15 17  1  0
 15 16  1  0
  3 19  1  0
 31 30  2  0
 31 32  1  0
 30 29  1  0
 32 33  2  0
 29 28  2  0
 29 34  1  0
 28 27  1  0
 19 35  1  0
 19 20  2  0
 33 34  1  0
 35 23  2  0
 34 25  2  0
 27 26  2  0
 20 21  1  0
 25 26  1  0
 25 24  1  0
 23 24  1  0
 23 22  1  0
 21 22  2  0
  1 36  1  0
  1 37  1  0
  1 38  1  0
  2 39  1  0
  2 40  1  0
  6 41  1  0
  7 42  1  0
  9 43  1  0
 10 44  1  0
 11 45  1  0
 13 46  1  0
 14 47  1  0
 16 48  1  0
 17 49  1  0
 18 50  1  0
 20 51  1  0
 21 52  1  0
 22 53  1  0
 24 54  1  0
 26 55  1  0
 27 56  1  0
 28 57  1  0
 30 58  1  0
 31 59  1  0
 32 60  1  0
 33 61  1  0
 35 62  1  0
M  END
