
     RDKit          3D

 49 51  0  0  0  0  0  0  0  0999 V2000
    6.2654   -0.3785    1.4048 N   0  0  0  0  0  0  0  0  0  0  0  0
    7.4132    0.3430    1.2565 C   0  0  0  0  0  0  0  0  0  0  0  0
   -3.0473   -0.5103    0.0579 C   0  0  0  0  0  0  0  0  0  0  0  0
    5.4300   -0.0282    0.3717 C   0  0  0  0  0  0  0  0  0  0  0  0
   -3.6134    1.3303    1.6388 C   0  0  0  0  0  0  0  0  0  0  0  0
    1.3627   -1.0023   -1.0336 C   0  0  0  0  0  0  0  0  0  0  0  0
    4.1536   -0.4498    0.0407 C   0  0  0  0  0  0  0  0  0  0  0  0
   -1.9159   -0.3083   -0.7222 C   0  0  0  0  0  0  0  0  0  0  0  0
   -2.5650   -2.8464    0.1433 C   0  0  0  0  0  0  0  0  0  0  0  0
    0.1220   -1.1570   -1.9016 C   0  0  0  0  0  0  0  0  0  0  0  0
   -1.4363   -2.6602   -0.6364 C   0  0  0  0  0  0  0  0  0  0  0  0
   -4.9715    1.1628   -0.6628 S   0  0  1  0  0  0  0  0  0  0  0  0
   -3.8826    0.5753    0.4370 N   0  0  0  0  0  0  0  0  0  0  0  0
    7.3929    1.1312    0.2113 N   0  0  0  0  0  0  0  0  0  0  0  0
    6.1592    0.9211   -0.3617 C   0  0  0  0  0  0  0  0  0  0  0  0
   -3.3810   -1.7849    0.4980 C   0  0  0  0  0  0  0  0  0  0  0  0
   -2.8158    2.6048    1.3797 C   0  0  0  0  0  0  0  0  0  0  0  0
   -5.4266    2.4463   -0.1490 O   0  0  0  0  0  0  0  0  0  0  0  0
   -4.4105    1.0829   -2.0015 O   0  0  0  0  0  0  0  0  0  0  0  0
   -1.1087   -1.3818   -1.0757 C   0  0  0  0  0  0  0  0  0  0  0  0
    3.5857    0.1234   -1.0976 C   0  0  0  0  0  0  0  0  0  0  0  0
    1.4795   -1.5894    0.0275 O   0  0  0  0  0  0  0  0  0  0  0  0
   -2.2869    2.8318    0.3055 O   0  0  0  0  0  0  0  0  0  0  0  0
    8.4190    0.2646    2.1629 N   0  0  0  0  0  0  0  0  0  0  0  0
    5.5763    1.4774   -1.4935 C   0  0  0  0  0  0  0  0  0  0  0  0
   -6.3213    0.0111   -0.5810 C   0  0  0  0  0  0  0  0  0  0  0  0
   -2.7351    3.4154    2.4413 N   0  0  0  0  0  0  0  0  0  0  0  0
    4.2998    1.0730   -1.8468 C   0  0  0  0  0  0  0  0  0  0  0  0
    6.0642   -1.0278    2.1485 H   0  0  0  0  0  0  0  0  0  0  0  0
   -4.5366    1.5623    2.1727 H   0  0  0  0  0  0  0  0  0  0  0  0
   -3.0343    0.6876    2.3047 H   0  0  0  0  0  0  0  0  0  0  0  0
    3.6327   -1.1808    0.6373 H   0  0  0  0  0  0  0  0  0  0  0  0
   -1.6655    0.6930   -1.0436 H   0  0  0  0  0  0  0  0  0  0  0  0
   -0.0112   -0.2913   -2.5527 H   0  0  0  0  0  0  0  0  0  0  0  0
    0.3018   -2.0112   -2.5602 H   0  0  0  0  0  0  0  0  0  0  0  0
   -0.8192   -3.5060   -0.9099 H   0  0  0  0  0  0  0  0  0  0  0  0
   -4.2623   -1.9367    1.1070 H   0  0  0  0  0  0  0  0  0  0  0  0
    2.0591    0.2449   -2.4458 H   0  0  0  0  0  0  0  0  0  0  0  0
    8.5220   -0.6038    2.6631 H   0  0  0  0  0  0  0  0  0  0  0  0
    9.2963    0.6539    1.8578 H   0  0  0  0  0  0  0  0  0  0  0  0
    6.1025    2.2109   -2.0906 H   0  0  0  0  0  0  0  0  0  0  0  0
   -5.9716   -0.9782   -0.8679 H   0  0  0  0  0  0  0  0  0  0  0  0
   -6.7158   -0.0061    0.4320 H   0  0  0  0  0  0  0  0  0  0  0  0
   -7.0898    0.3444   -1.2768 H   0  0  0  0  0  0  0  0  0  0  0  0
   -3.2107    3.2139    3.3045 H   0  0  0  0  0  0  0  0  0  0  0  0
   -2.2079    4.2720    2.3928 H   0  0  0  0  0  0  0  0  0  0  0  0
    3.8376    1.5032   -2.7275 H   0  0  0  0  0  0  0  0  0  0  0  0
    2.3036   -0.1975   -1.5731 N   0  0  0  0  0  0  0  0  0  0  0  0
   -2.9732   -4.4416    0.6807 Cl  0  0  0  0  0  0  0  0  0  0  0  0
 27 17  1  0
 23 17  2  0
 17  5  1  0
  5 13  1  0
 13  3  1  0
 12 13  1  1
 18 12  2  0
 16  3  2  0
 16  9  1  0
 49  9  1  0
  3  8  1  0
  9 11  2  0
 12 19  2  0
 12 26  1  0
  8 20  2  0
 11 20  1  0
 20 10  1  0
 10  6  1  0
 48  6  1  0
 48 21  1  0
  6 22  2  0
 28 21  2  0
 28 25  1  0
 21  7  1  0
 25 15  2  0
  7  4  2  0
 15  4  1  0
 15 14  1  0
  4  1  1  0
 14  2  2  0
  1  2  1  0
  2 24  1  0
  1 29  1  0
  5 30  1  0
  5 31  1  0
  7 32  1  0
  8 33  1  0
 10 34  1  0
 10 35  1  0
 11 36  1  0
 16 37  1  0
 48 38  1  0
 24 39  1  0
 24 40  1  0
 25 41  1  0
 26 42  1  0
 26 43  1  0
 26 44  1  0
 27 45  1  0
 27 46  1  0
 28 47  1  0
M  END
