
     RDKit          3D

 23 24  0  0  0  0  0  0  0  0999 V2000
   -3.5721   -1.6665    0.0559 C   0  0  0  0  0  0  0  0  0  0  0  0
   -3.5046   -0.3112   -0.2222 C   0  0  0  0  0  0  0  0  0  0  0  0
   -2.2920    0.3509   -0.1125 C   0  0  0  0  0  0  0  0  0  0  0  0
    2.7463   -1.4274   -0.7921 C   0  0  0  0  0  0  0  0  0  0  0  0
    3.4966    0.5108    0.0248 C   0  0  0  0  0  0  0  0  0  0  0  0
   -2.2242    2.0419   -0.4877 Cl  0  0  0  0  0  0  0  0  0  0  0  0
   -1.1305   -0.3118    0.2917 C   0  0  0  0  0  0  0  0  0  0  0  0
   -1.2234   -1.6721    0.5861 C   0  0  0  0  0  0  0  0  0  0  0  0
   -2.4279   -2.3427    0.4576 C   0  0  0  0  0  0  0  0  0  0  0  0
    0.0561    0.4062    0.4422 N   0  0  0  0  0  0  0  0  0  0  0  0
    1.3074    0.0197    0.0973 C   0  0  0  0  0  0  0  0  0  0  0  0
    2.2691    0.8915    0.3758 N   0  0  0  0  0  0  0  0  0  0  0  0
    3.7916   -0.6610   -0.5710 N   0  0  0  0  0  0  0  0  0  0  0  0
    1.4850   -1.1648   -0.4922 N   0  0  0  0  0  0  0  0  0  0  0  0
   -4.5155   -2.1871   -0.0370 H   0  0  0  0  0  0  0  0  0  0  0  0
   -4.3873    0.2313   -0.5323 H   0  0  0  0  0  0  0  0  0  0  0  0
    2.9363   -2.3808   -1.2755 H   0  0  0  0  0  0  0  0  0  0  0  0
   -0.3455   -2.2026    0.9227 H   0  0  0  0  0  0  0  0  0  0  0  0
   -2.4740   -3.3985    0.6882 H   0  0  0  0  0  0  0  0  0  0  0  0
   -0.0133    1.3569    0.7743 H   0  0  0  0  0  0  0  0  0  0  0  0
    4.3458    2.2078    0.7612 H   0  0  0  0  0  0  0  0  0  0  0  0
    5.4501    1.0723    0.0667 H   0  0  0  0  0  0  0  0  0  0  0  0
    4.5051    1.3441    0.2729 N   0  0  0  0  0  0  0  0  0  0  0  0
  4 13  2  0
  4 14  1  0
 13  5  1  0
 14 11  2  0
  5 23  1  0
  5 12  2  0
 11 12  1  0
 11 10  1  0
 10  7  1  0
  6  3  1  0
  7  3  2  0
  7  8  1  0
  3  2  1  0
  8  9  2  0
  2  1  2  0
  9  1  1  0
  1 15  1  0
  2 16  1  0
  4 17  1  0
  8 18  1  0
  9 19  1  0
 10 20  1  0
 23 21  1  0
 23 22  1  0
M  END
