
     RDKit          3D

 65 65  0  0  0  0  0  0  0  0999 V2000
    5.7864   -0.9059   -0.2154 N   0  0  0  0  0  0  0  0  0  0  0  0
    0.9115    1.3275    1.7615 O   0  0  0  0  0  0  0  0  0  0  0  0
    0.0732    1.3971    0.9026 C   0  0  0  0  0  0  0  0  0  0  0  0
   -0.2774    2.5245    0.3076 O   0  0  0  0  0  0  0  0  0  0  0  0
    0.3817    3.7365    0.7136 C   0  0  0  0  0  0  0  0  0  0  0  0
   -0.2170    4.8715   -0.0791 C   0  0  0  0  0  0  0  0  0  0  0  0
   -0.6351    0.1995    0.2810 C   0  0  2  0  0  0  0  0  0  0  0  0
   -2.0866    0.5065   -0.1525 C   0  0  0  0  0  0  0  0  0  0  0  0
   -3.0184    1.0183    0.9456 C   0  0  0  0  0  0  0  0  0  0  0  0
   -4.3493    1.2617    0.4454 N   0  0  0  0  0  0  0  0  0  0  0  0
   -5.2572    0.2714    0.3160 C   0  0  0  0  0  0  0  0  0  0  0  0
   -5.0769   -0.8681    0.6966 O   0  0  0  0  0  0  0  0  0  0  0  0
   -6.3630    0.7340   -0.2680 O   0  0  0  0  0  0  0  0  0  0  0  0
   -7.5391   -0.0883   -0.4836 C   0  0  1  0  0  0  0  0  0  0  0  0
   -8.1254   -0.5587    0.8425 C   0  0  0  0  0  0  0  0  0  0  0  0
   -8.5083    0.8667   -1.1694 C   0  0  0  0  0  0  0  0  0  0  0  0
   -7.2330   -1.2600   -1.4101 C   0  0  0  0  0  0  0  0  0  0  0  0
   -0.7085   -0.9303    1.3034 C   0  0  0  0  0  0  0  0  0  0  0  0
   -0.7970   -2.1098    0.7178 O   0  0  0  0  0  0  0  0  0  0  0  0
   -0.9867   -3.2736    1.5407 C   0  0  0  0  0  0  0  0  0  0  0  0
   -1.0431   -4.4713    0.6248 C   0  0  0  0  0  0  0  0  0  0  0  0
   -0.7794   -0.7691    2.4942 O   0  0  0  0  0  0  0  0  0  0  0  0
    0.1653   -0.1762   -1.0006 C   0  0  0  0  0  0  0  0  0  0  0  0
    1.6421   -0.3880   -0.8064 C   0  0  0  0  0  0  0  0  0  0  0  0
    2.1757   -1.6252   -0.4556 C   0  0  0  0  0  0  0  0  0  0  0  0
    3.5404   -1.7949   -0.2853 C   0  0  0  0  0  0  0  0  0  0  0  0
    2.5273    0.6728   -0.9835 C   0  0  0  0  0  0  0  0  0  0  0  0
    3.8911    0.5256   -0.7926 C   0  0  0  0  0  0  0  0  0  0  0  0
    4.4048   -0.7182   -0.4440 C   0  0  0  0  0  0  0  0  0  0  0  0
    6.9182   -0.4945   -1.3281 S   0  0  2  0  0  0  0  0  0  0  0  0
    6.3778   -0.4812   -2.6687 O   0  0  0  0  0  0  0  0  0  0  0  0
    8.0968   -1.2735   -1.0329 O   0  0  0  0  0  0  0  0  0  0  0  0
    7.1633    1.0187   -0.8790 O   0  0  0  0  0  0  0  0  0  0  0  0
    6.0436   -1.7442    0.2921 H   0  0  0  0  0  0  0  0  0  0  0  0
    1.4536    3.6461    0.5263 H   0  0  0  0  0  0  0  0  0  0  0  0
    0.2389    3.8871    1.7851 H   0  0  0  0  0  0  0  0  0  0  0  0
   -0.0533    4.7463   -1.1493 H   0  0  0  0  0  0  0  0  0  0  0  0
   -1.2880    4.9637    0.1018 H   0  0  0  0  0  0  0  0  0  0  0  0
    0.2550    5.8053    0.2245 H   0  0  0  0  0  0  0  0  0  0  0  0
   -2.0576    1.2366   -0.9630 H   0  0  0  0  0  0  0  0  0  0  0  0
   -2.5060   -0.4074   -0.5801 H   0  0  0  0  0  0  0  0  0  0  0  0
   -3.0814    0.3174    1.7765 H   0  0  0  0  0  0  0  0  0  0  0  0
   -2.6503    1.9587    1.3555 H   0  0  0  0  0  0  0  0  0  0  0  0
   -4.5507    2.1612    0.0403 H   0  0  0  0  0  0  0  0  0  0  0  0
   -8.2749    0.2797    1.5250 H   0  0  0  0  0  0  0  0  0  0  0  0
   -9.1006   -1.0129    0.6624 H   0  0  0  0  0  0  0  0  0  0  0  0
   -7.4971   -1.2996    1.3314 H   0  0  0  0  0  0  0  0  0  0  0  0
   -8.1103    1.2199   -2.1219 H   0  0  0  0  0  0  0  0  0  0  0  0
   -9.4478    0.3522   -1.3703 H   0  0  0  0  0  0  0  0  0  0  0  0
   -8.7282    1.7337   -0.5447 H   0  0  0  0  0  0  0  0  0  0  0  0
   -6.6072   -2.0124   -0.9359 H   0  0  0  0  0  0  0  0  0  0  0  0
   -8.1700   -1.7374   -1.7013 H   0  0  0  0  0  0  0  0  0  0  0  0
   -6.7405   -0.9204   -2.3230 H   0  0  0  0  0  0  0  0  0  0  0  0
   -0.1597   -3.3577    2.2479 H   0  0  0  0  0  0  0  0  0  0  0  0
   -1.9113   -3.1701    2.1120 H   0  0  0  0  0  0  0  0  0  0  0  0
   -0.1191   -4.5838    0.0569 H   0  0  0  0  0  0  0  0  0  0  0  0
   -1.1782   -5.3726    1.2218 H   0  0  0  0  0  0  0  0  0  0  0  0
   -1.8765   -4.4026   -0.0738 H   0  0  0  0  0  0  0  0  0  0  0  0
   -0.2958   -1.0581   -1.4458 H   0  0  0  0  0  0  0  0  0  0  0  0
    0.0175    0.6356   -1.7156 H   0  0  0  0  0  0  0  0  0  0  0  0
    1.5286   -2.4838   -0.3367 H   0  0  0  0  0  0  0  0  0  0  0  0
    3.9328   -2.7719   -0.0310 H   0  0  0  0  0  0  0  0  0  0  0  0
    2.1493    1.6457   -1.2766 H   0  0  0  0  0  0  0  0  0  0  0  0
    4.5371    1.3849   -0.9078 H   0  0  0  0  0  0  0  0  0  0  0  0
    7.5372    1.5434   -1.6079 H   0  0  0  0  0  0  0  0  0  0  0  0
  1 29  1  0
  1 30  1  0
  1 34  1  0
  2  3  2  0
  3  4  1  0
  7  3  1  1
  4  5  1  0
  5  6  1  0
  5 35  1  0
  5 36  1  0
  6 37  1  0
  6 38  1  0
  6 39  1  0
  7  8  1  0
  7 18  1  0
  7 23  1  0
  8  9  1  0
  8 40  1  0
  8 41  1  0
  9 10  1  0
  9 42  1  0
  9 43  1  0
 10 11  1  0
 10 44  1  0
 11 12  2  0
 11 13  1  0
 14 13  1  1
 14 15  1  0
 14 16  1  0
 14 17  1  0
 15 45  1  0
 15 46  1  0
 15 47  1  0
 16 48  1  0
 16 49  1  0
 16 50  1  0
 17 51  1  0
 17 52  1  0
 17 53  1  0
 18 19  1  0
 18 22  2  0
 19 20  1  0
 20 21  1  0
 20 54  1  0
 20 55  1  0
 21 56  1  0
 21 57  1  0
 21 58  1  0
 23 24  1  0
 23 59  1  0
 23 60  1  0
 24 25  2  0
 24 27  1  0
 25 26  1  0
 25 61  1  0
 26 29  2  0
 26 62  1  0
 27 28  2  0
 27 63  1  0
 28 29  1  0
 28 64  1  0
 30 31  2  0
 30 32  2  0
 30 33  1  1
 33 65  1  0
M  END
