
     RDKit          3D

 34 35  0  0  0  0  0  0  0  0999 V2000
    1.9886    1.8710    0.2578 C   0  0  0  0  0  0  0  0  0  0  0  0
    2.4927   -0.3029   -0.8046 C   0  0  0  0  0  0  0  0  0  0  0  0
    5.1229   -1.4935    1.3881 C   0  0  0  0  0  0  0  0  0  0  0  0
   -2.6226    0.1494   -0.1556 C   0  0  0  0  0  0  0  0  0  0  0  0
   -3.9178    0.5616   -0.2546 C   0  0  0  0  0  0  0  0  0  0  0  0
   -4.8549   -0.4632    0.0537 C   0  0  0  0  0  0  0  0  0  0  0  0
   -4.2534   -1.6365    0.3877 C   0  0  0  0  0  0  0  0  0  0  0  0
   -1.3843    0.9464   -0.3962 C   0  0  2  0  0  0  0  0  0  0  0  0
   -0.5254    0.3571   -1.5119 C   0  0  0  0  0  0  0  0  0  0  0  0
    0.7933    1.0750   -1.7847 C   0  0  0  0  0  0  0  0  0  0  0  0
    0.6719    2.3995    0.8099 C   0  0  0  0  0  0  0  0  0  0  0  0
    4.1934   -1.5979    0.2034 C   0  0  0  0  0  0  0  0  0  0  0  0
    1.8020    0.8570   -0.7619 N   0  0  0  0  0  0  0  0  0  0  0  0
    2.3146   -1.1693   -1.6418 O   0  0  0  0  0  0  0  0  0  0  0  0
    3.4086   -0.4011    0.1594 O   0  0  0  0  0  0  0  0  0  0  0  0
   -2.5445   -1.5075    0.3244 S   0  0  0  0  0  0  0  0  0  0  0  0
   -0.5234    1.1014    1.2168 S   0  0  0  0  0  0  0  0  0  0  0  0
    2.5586    2.7169   -0.1427 H   0  0  0  0  0  0  0  0  0  0  0  0
    2.5668    1.4549    1.0767 H   0  0  0  0  0  0  0  0  0  0  0  0
    5.7415   -2.3893    1.4348 H   0  0  0  0  0  0  0  0  0  0  0  0
    5.7852   -0.6320    1.3041 H   0  0  0  0  0  0  0  0  0  0  0  0
    4.5725   -1.4191    2.3262 H   0  0  0  0  0  0  0  0  0  0  0  0
   -4.1918    1.5677   -0.5406 H   0  0  0  0  0  0  0  0  0  0  0  0
   -5.9267   -0.3292    0.0286 H   0  0  0  0  0  0  0  0  0  0  0  0
   -4.7183   -2.5697    0.6653 H   0  0  0  0  0  0  0  0  0  0  0  0
   -1.6978    1.9557   -0.6784 H   0  0  0  0  0  0  0  0  0  0  0  0
   -0.3213   -0.6965   -1.3119 H   0  0  0  0  0  0  0  0  0  0  0  0
   -1.1241    0.3873   -2.4271 H   0  0  0  0  0  0  0  0  0  0  0  0
    1.1785    0.7392   -2.7470 H   0  0  0  0  0  0  0  0  0  0  0  0
    0.6367    2.1509   -1.8845 H   0  0  0  0  0  0  0  0  0  0  0  0
    0.8761    2.9513    1.7283 H   0  0  0  0  0  0  0  0  0  0  0  0
    0.1898    3.1022    0.1282 H   0  0  0  0  0  0  0  0  0  0  0  0
    4.7608   -1.7037   -0.7236 H   0  0  0  0  0  0  0  0  0  0  0  0
    3.5426   -2.4694    0.2986 H   0  0  0  0  0  0  0  0  0  0  0  0
  6  5  1  0
  6  7  2  0
  5  4  2  0
  7 16  1  0
 17 11  1  0
 17  8  1  0
  4 16  1  0
  4  8  1  0
 11  1  1  0
  8  9  1  0
  1 13  1  0
  9 10  1  0
 13 10  1  0
 13  2  1  0
 14  2  2  0
  2 15  1  0
 15 12  1  0
 12  3  1  0
  1 18  1  0
  1 19  1  0
  3 20  1  0
  3 21  1  0
  3 22  1  0
  5 23  1  0
  6 24  1  0
  7 25  1  0
  8 26  1  6
  9 27  1  0
  9 28  1  0
 10 29  1  0
 10 30  1  0
 11 31  1  0
 11 32  1  0
 12 33  1  0
 12 34  1  0
M  END
