
     RDKit          3D

 46 48  0  0  0  0  0  0  0  0999 V2000
   -1.8342   -1.9630   -0.6767 C   0  0  0  0  0  0  0  0  0  0  0  0
   -0.9978   -1.9622    0.4005 C   0  0  0  0  0  0  0  0  0  0  0  0
    0.2627   -2.5766    0.3048 C   0  0  0  0  0  0  0  0  0  0  0  0
    0.6944   -3.1858   -0.8451 C   0  0  0  0  0  0  0  0  0  0  0  0
   -0.1266   -4.5583   -5.3197 C   0  0  0  0  0  0  0  0  0  0  0  0
   -0.9037   -4.6475   -6.4362 C   0  0  0  0  0  0  0  0  0  0  0  0
   -2.1851   -4.0517   -6.4667 C   0  0  0  0  0  0  0  0  0  0  0  0
   -2.6522   -3.3825   -5.3726 C   0  0  0  0  0  0  0  0  0  0  0  0
   -2.3124   -2.5883   -3.0284 C   0  0  0  0  0  0  0  0  0  0  0  0
    0.2282   -3.8220   -3.1052 N   0  0  0  0  0  0  0  0  0  0  0  0
   -1.4544   -2.5793   -1.8913 C   0  0  0  0  0  0  0  0  0  0  0  0
   -0.1762   -3.2105   -1.9935 C   0  0  0  0  0  0  0  0  0  0  0  0
   -1.8709   -3.2718   -4.1945 C   0  0  0  0  0  0  0  0  0  0  0  0
   -0.5838   -3.8694   -4.1638 C   0  0  0  0  0  0  0  0  0  0  0  0
   -3.5032   -1.9871   -3.0009 N   0  0  0  0  0  0  0  0  0  0  0  0
    2.0773   -3.7861   -0.7925 C   0  0  0  0  0  0  0  0  0  0  0  0
    2.6819   -3.8475    0.2758 O   0  0  0  0  0  0  0  0  0  0  0  0
    2.6000   -4.1971   -1.9511 N   0  0  0  0  0  0  0  0  0  0  0  0
    3.8829   -4.8512   -2.0591 C   0  0  0  0  0  0  0  0  0  0  0  0
    3.8137   -6.3629   -1.8599 C   0  0  0  0  0  0  0  0  0  0  0  0
    2.9121   -7.0367   -2.8861 C   0  0  0  0  0  0  0  0  0  0  0  0
    3.0239   -8.4842   -2.9016 N   0  0  0  0  0  0  0  0  0  0  0  0
    2.3089   -9.0398   -4.0300 C   0  0  0  0  0  0  0  0  0  0  0  0
    2.5743   -9.0891   -1.6662 C   0  0  0  0  0  0  0  0  0  0  0  0
   -2.7993   -1.4848   -0.5725 H   0  0  0  0  0  0  0  0  0  0  0  0
   -1.2979   -1.4906    1.3258 H   0  0  0  0  0  0  0  0  0  0  0  0
    0.9150   -2.5673    1.1672 H   0  0  0  0  0  0  0  0  0  0  0  0
    0.8547   -5.0146   -5.2832 H   0  0  0  0  0  0  0  0  0  0  0  0
   -0.5415   -5.1799   -7.3061 H   0  0  0  0  0  0  0  0  0  0  0  0
   -2.7961   -4.1283   -7.3556 H   0  0  0  0  0  0  0  0  0  0  0  0
   -3.6398   -2.9436   -5.4290 H   0  0  0  0  0  0  0  0  0  0  0  0
   -3.8028   -1.4263   -2.2245 H   0  0  0  0  0  0  0  0  0  0  0  0
   -4.0749   -1.9134   -3.8226 H   0  0  0  0  0  0  0  0  0  0  0  0
    1.9615   -4.1903   -2.7470 H   0  0  0  0  0  0  0  0  0  0  0  0
    4.5740   -4.4140   -1.3390 H   0  0  0  0  0  0  0  0  0  0  0  0
    4.2772   -4.6307   -3.0535 H   0  0  0  0  0  0  0  0  0  0  0  0
    3.4773   -6.5700   -0.8414 H   0  0  0  0  0  0  0  0  0  0  0  0
    4.8261   -6.7659   -1.9529 H   0  0  0  0  0  0  0  0  0  0  0  0
    3.1910   -6.6736   -3.8816 H   0  0  0  0  0  0  0  0  0  0  0  0
    1.8665   -6.7181   -2.7254 H   0  0  0  0  0  0  0  0  0  0  0  0
    2.6914   -8.6209   -4.9621 H   0  0  0  0  0  0  0  0  0  0  0  0
    1.2243   -8.8476   -3.9978 H   0  0  0  0  0  0  0  0  0  0  0  0
    2.4506  -10.1213   -4.0663 H   0  0  0  0  0  0  0  0  0  0  0  0
    1.5232   -8.8576   -1.4287 H   0  0  0  0  0  0  0  0  0  0  0  0
    3.1856   -8.7632   -0.8245 H   0  0  0  0  0  0  0  0  0  0  0  0
    2.6671  -10.1739   -1.7336 H   0  0  0  0  0  0  0  0  0  0  0  0
  1  2  2  0
  1 11  1  0
  1 25  1  0
  2  3  1  0
  2 26  1  0
  3  4  2  0
  3 27  1  0
  4 12  1  0
  4 16  1  0
  5  6  1  0
  5 14  2  0
  5 28  1  0
  6  7  2  0
  6 29  1  0
  7  8  1  0
  7 30  1  0
  8 13  2  0
  8 31  1  0
  9 11  2  0
  9 13  1  0
  9 15  1  0
 10 12  2  0
 10 14  1  0
 11 12  1  0
 13 14  1  0
 15 32  1  0
 15 33  1  0
 16 17  2  0
 16 18  1  0
 18 19  1  0
 18 34  1  0
 19 20  1  0
 19 35  1  0
 19 36  1  0
 20 21  1  0
 20 37  1  0
 20 38  1  0
 21 22  1  0
 21 39  1  0
 21 40  1  0
 22 23  1  0
 22 24  1  0
 23 41  1  0
 23 42  1  0
 23 43  1  0
 24 44  1  0
 24 45  1  0
 24 46  1  0
M  END
