
     RDKit          3D

 96 98  0  0  0  0  0  0  0  0999 V2000
   -1.0035    3.5809    0.4172 C   0  0  0  0  0  0  0  0  0  0  0  0
   -0.0397    3.5729   -0.5701 N   0  0  0  0  0  0  0  0  0  0  0  0
   -0.7417    3.1959    1.5390 O   0  0  0  0  0  0  0  0  0  0  0  0
   -2.3528    4.0172   -0.0224 C   0  0  0  0  0  0  0  0  0  0  0  0
   -2.2903    1.4756   -2.3128 N   0  0  0  0  0  0  0  0  0  0  0  0
   -4.6373    0.9922    1.8614 O   0  0  0  0  0  0  0  0  0  0  0  0
   -3.3695    3.3377    0.5324 C   0  0  0  0  0  0  0  0  0  0  0  0
   -3.7199    0.7277   -0.8252 O   0  0  0  0  0  0  0  0  0  0  0  0
   -4.7631    3.4348    0.1340 C   0  0  0  0  0  0  0  0  0  0  0  0
   -4.4060    0.9681   -2.9666 O   0  0  0  0  0  0  0  0  0  0  0  0
   -5.6762    2.4614    0.2438 C   0  0  0  0  0  0  0  0  0  0  0  0
   -1.6506   -3.3183   -0.9998 O   0  0  0  0  0  0  0  0  0  0  0  0
   -5.4863    1.0544    0.7448 C   0  0  1  0  0  0  0  0  0  0  0  0
   -0.6815   -3.6149    2.4083 O   0  0  0  0  0  0  0  0  0  0  0  0
   -4.9471    0.1715   -0.4036 C   0  0  2  0  0  0  0  0  0  0  0  0
   -4.7601   -1.2701    0.0074 C   0  0  0  0  0  0  0  0  0  0  0  0
    4.5578    2.6831   -1.0735 O   0  0  0  0  0  0  0  0  0  0  0  0
   -3.5605   -1.7445    0.3457 C   0  0  0  0  0  0  0  0  0  0  0  0
   -0.2915    0.9185   -0.0671 O   0  0  0  0  0  0  0  0  0  0  0  0
   -3.2643   -3.1518    0.7912 C   0  0  1  0  0  0  0  0  0  0  0  0
   -1.8502   -3.6011    0.3680 C   0  0  2  0  0  0  0  0  0  0  0  0
   -0.6839   -2.9758    1.1465 C   0  0  2  0  0  0  0  0  0  0  0  0
    0.6765   -3.1528    0.4440 C   0  0  0  0  0  0  0  0  0  0  0  0
    1.1659   -1.9085   -0.3036 C   0  0  1  0  0  0  0  0  0  0  0  0
    1.6774   -0.8712    0.7119 C   0  0  0  0  0  0  0  0  0  0  0  0
    1.9888    0.4897    0.1521 C   0  0  0  0  0  0  0  0  0  0  0  0
    3.2510    0.9006   -0.2062 C   0  0  0  0  0  0  0  0  0  0  0  0
    3.4542    2.2905   -0.7568 C   0  0  0  0  0  0  0  0  0  0  0  0
    2.3036    3.1817   -0.8502 C   0  0  0  0  0  0  0  0  0  0  0  0
    1.0851    2.7789   -0.4768 C   0  0  0  0  0  0  0  0  0  0  0  0
    0.8576    1.3386   -0.0968 C   0  0  0  0  0  0  0  0  0  0  0  0
   -2.4786    4.9939   -1.1526 C   0  0  0  0  0  0  0  0  0  0  0  0
   -5.1702    0.3055    2.9685 C   0  0  0  0  0  0  0  0  0  0  0  0
   -3.5434    1.0493   -2.1130 C   0  0  0  0  0  0  0  0  0  0  0  0
   -6.0326   -2.0640    0.0035 C   0  0  0  0  0  0  0  0  0  0  0  0
   -3.5752   -3.3200    2.2803 C   0  0  0  0  0  0  0  0  0  0  0  0
   -0.1178   -2.8468    3.4367 C   0  0  0  0  0  0  0  0  0  0  0  0
    2.2301   -2.2698   -1.3318 C   0  0  0  0  0  0  0  0  0  0  0  0
    4.3200    0.1016   -0.0777 N   0  0  0  0  0  0  0  0  0  0  0  0
    5.6968    0.2537   -0.5169 C   0  0  0  0  0  0  0  0  0  0  0  0
    6.4088   -1.0742   -0.2918 C   0  0  0  0  0  0  0  0  0  0  0  0
    7.7993   -1.0026   -0.6598 N   0  0  0  0  0  0  0  0  0  0  0  0
    8.0438   -0.8581   -2.0876 C   0  0  0  0  0  0  0  0  0  0  0  0
    9.5274   -1.2086   -2.2566 C   0  0  0  0  0  0  0  0  0  0  0  0
    9.8888   -2.0015   -0.9837 C   0  0  0  0  0  0  0  0  0  0  0  0
    8.5522   -2.1837   -0.2727 C   0  0  0  0  0  0  0  0  0  0  0  0
   -0.1287    4.1778   -1.3728 H   0  0  0  0  0  0  0  0  0  0  0  0
   -1.9888    1.7162   -3.2399 H   0  0  0  0  0  0  0  0  0  0  0  0
   -1.6104    1.4403   -1.5672 H   0  0  0  0  0  0  0  0  0  0  0  0
   -3.1320    2.5971    1.2819 H   0  0  0  0  0  0  0  0  0  0  0  0
   -5.0899    4.3578   -0.3330 H   0  0  0  0  0  0  0  0  0  0  0  0
   -6.6661    2.6647   -0.1500 H   0  0  0  0  0  0  0  0  0  0  0  0
   -2.4383   -3.5886   -1.4818 H   0  0  0  0  0  0  0  0  0  0  0  0
   -6.4817    0.6647    0.9971 H   0  0  0  0  0  0  0  0  0  0  0  0
   -5.6810    0.2150   -1.2154 H   0  0  0  0  0  0  0  0  0  0  0  0
   -2.7199   -1.0594    0.3300 H   0  0  0  0  0  0  0  0  0  0  0  0
   -3.9408   -3.8339    0.2604 H   0  0  0  0  0  0  0  0  0  0  0  0
   -1.7872   -4.6874    0.5464 H   0  0  0  0  0  0  0  0  0  0  0  0
   -0.8739   -1.8976    1.2783 H   0  0  0  0  0  0  0  0  0  0  0  0
    1.4283   -3.4128    1.1981 H   0  0  0  0  0  0  0  0  0  0  0  0
    0.6377   -4.0069   -0.2366 H   0  0  0  0  0  0  0  0  0  0  0  0
    0.3142   -1.4717   -0.8295 H   0  0  0  0  0  0  0  0  0  0  0  0
    0.9244   -0.7457    1.4948 H   0  0  0  0  0  0  0  0  0  0  0  0
    2.5447   -1.2898    1.2363 H   0  0  0  0  0  0  0  0  0  0  0  0
    2.4960    4.1921   -1.1897 H   0  0  0  0  0  0  0  0  0  0  0  0
   -2.3169    4.5076   -2.1185 H   0  0  0  0  0  0  0  0  0  0  0  0
   -3.4691    5.4432   -1.1869 H   0  0  0  0  0  0  0  0  0  0  0  0
   -1.7616    5.8117   -1.0675 H   0  0  0  0  0  0  0  0  0  0  0  0
   -5.3998   -0.7402    2.7429 H   0  0  0  0  0  0  0  0  0  0  0  0
   -4.4173    0.3203    3.7558 H   0  0  0  0  0  0  0  0  0  0  0  0
   -6.0789    0.7856    3.3477 H   0  0  0  0  0  0  0  0  0  0  0  0
   -6.5064   -2.0356   -0.9811 H   0  0  0  0  0  0  0  0  0  0  0  0
   -5.8842   -3.1077    0.2727 H   0  0  0  0  0  0  0  0  0  0  0  0
   -6.7620   -1.6517    0.7062 H   0  0  0  0  0  0  0  0  0  0  0  0
   -4.6439   -3.1758    2.4420 H   0  0  0  0  0  0  0  0  0  0  0  0
   -3.3142   -4.3150    2.6418 H   0  0  0  0  0  0  0  0  0  0  0  0
   -3.0555   -2.5862    2.8957 H   0  0  0  0  0  0  0  0  0  0  0  0
    0.9234   -2.5650    3.2375 H   0  0  0  0  0  0  0  0  0  0  0  0
   -0.6829   -1.9240    3.6173 H   0  0  0  0  0  0  0  0  0  0  0  0
   -0.1347   -3.4429    4.3489 H   0  0  0  0  0  0  0  0  0  0  0  0
    1.8247   -2.9500   -2.0824 H   0  0  0  0  0  0  0  0  0  0  0  0
    2.6028   -1.3885   -1.8570 H   0  0  0  0  0  0  0  0  0  0  0  0
    3.0839   -2.7710   -0.8665 H   0  0  0  0  0  0  0  0  0  0  0  0
    4.1116   -0.8095    0.3003 H   0  0  0  0  0  0  0  0  0  0  0  0
    5.7327    0.5239   -1.5725 H   0  0  0  0  0  0  0  0  0  0  0  0
    6.2117    1.0344    0.0448 H   0  0  0  0  0  0  0  0  0  0  0  0
    6.3455   -1.3318    0.7701 H   0  0  0  0  0  0  0  0  0  0  0  0
    5.8790   -1.8718   -0.8458 H   0  0  0  0  0  0  0  0  0  0  0  0
    7.4163   -1.5537   -2.6695 H   0  0  0  0  0  0  0  0  0  0  0  0
    7.8130    0.1505   -2.4349 H   0  0  0  0  0  0  0  0  0  0  0  0
    9.6860   -1.7903   -3.1640 H   0  0  0  0  0  0  0  0  0  0  0  0
   10.1381   -0.3101   -2.3424 H   0  0  0  0  0  0  0  0  0  0  0  0
   10.3642   -2.9572   -1.2021 H   0  0  0  0  0  0  0  0  0  0  0  0
   10.5766   -1.4313   -0.3585 H   0  0  0  0  0  0  0  0  0  0  0  0
    8.6435   -2.2491    0.8136 H   0  0  0  0  0  0  0  0  0  0  0  0
    8.0604   -3.1093   -0.6184 H   0  0  0  0  0  0  0  0  0  0  0  0
  4  1  1  0
  2  1  1  0
  1  3  2  0
 30  2  1  0
  2 47  1  0
 32  4  1  0
  7  4  2  0
 34  5  1  0
  5 48  1  0
  5 49  1  0
 13  6  1  0
  6 33  1  0
  9  7  1  0
  7 50  1  0
 15  8  1  0
 34  8  1  0
 11  9  2  0
  9 51  1  0
 10 34  2  0
 11 13  1  0
 11 52  1  0
 12 21  1  0
 12 53  1  0
 15 13  1  0
 13 54  1  1
 37 14  1  0
 14 22  1  0
 16 15  1  0
 15 55  1  6
 18 16  2  0
 16 35  1  0
 28 17  2  0
 20 18  1  0
 18 56  1  0
 19 31  2  0
 21 20  1  0
 36 20  1  0
 20 57  1  6
 21 22  1  0
 21 58  1  6
 23 22  1  0
 22 59  1  1
 23 24  1  0
 23 60  1  0
 23 61  1  0
 24 25  1  0
 24 38  1  0
 24 62  1  6
 25 26  1  0
 25 63  1  0
 25 64  1  0
 26 27  2  0
 26 31  1  0
 39 27  1  0
 27 28  1  0
 28 29  1  0
 30 29  2  0
 29 65  1  0
 31 30  1  0
 32 66  1  0
 32 67  1  0
 32 68  1  0
 33 69  1  0
 33 70  1  0
 33 71  1  0
 35 72  1  0
 35 73  1  0
 35 74  1  0
 36 75  1  0
 36 76  1  0
 36 77  1  0
 37 78  1  0
 37 79  1  0
 37 80  1  0
 38 81  1  0
 38 82  1  0
 38 83  1  0
 39 40  1  0
 39 84  1  0
 40 41  1  0
 40 85  1  0
 40 86  1  0
 42 41  1  0
 41 87  1  0
 41 88  1  0
 43 42  1  0
 42 46  1  0
 44 43  1  0
 43 89  1  0
 43 90  1  0
 44 45  1  0
 44 91  1  0
 44 92  1  0
 45 46  1  0
 45 93  1  0
 45 94  1  0
 46 95  1  0
 46 96  1  0
M  END
