
     RDKit          3D

 33 33  0  0  0  0  0  0  0  0999 V2000
    3.3665    0.0628   -0.0970 S   0  0  1  0  0  0  0  0  0  0  0  0
    1.8035    0.8019   -0.6079 C   0  0  0  0  0  0  0  0  0  0  0  0
    4.4046    0.8284   -0.8129 O   0  0  0  0  0  0  0  0  0  0  0  0
   -1.9448    0.3098    0.1561 N   0  0  1  0  0  0  0  0  0  0  0  0
    3.4267    0.2291    1.3686 O   0  0  0  0  0  0  0  0  0  0  0  0
    0.6080    0.1453    0.0658 C   0  0  0  0  0  0  0  0  0  0  0  0
    3.2922   -1.3506   -0.5161 O   0  0  0  0  0  0  0  0  0  0  0  0
   -0.6544    0.8482   -0.4001 C   0  0  0  0  0  0  0  0  0  0  0  0
   -1.9017    0.3263    1.6420 C   0  0  0  0  0  0  0  0  0  0  0  0
   -3.5571   -1.6172    0.0033 C   0  0  0  0  0  0  0  0  0  0  0  0
   -4.4343    0.7229    0.0017 C   0  0  0  0  0  0  0  0  0  0  0  0
   -4.6609   -0.6969   -0.4980 C   0  0  0  0  0  0  0  0  0  0  0  0
   -3.0434    1.2158   -0.3420 C   0  0  0  0  0  0  0  0  0  0  0  0
   -2.1839   -1.0853   -0.3581 C   0  0  0  0  0  0  0  0  0  0  0  0
    1.8537    1.8651   -0.3632 H   0  0  0  0  0  0  0  0  0  0  0  0
    1.7453    0.7132   -1.6946 H   0  0  0  0  0  0  0  0  0  0  0  0
    0.5878   -0.9155   -0.1866 H   0  0  0  0  0  0  0  0  0  0  0  0
    0.7258    0.2297    1.1463 H   0  0  0  0  0  0  0  0  0  0  0  0
   -0.7452    0.7924   -1.4852 H   0  0  0  0  0  0  0  0  0  0  0  0
   -0.6200    1.9034   -0.1239 H   0  0  0  0  0  0  0  0  0  0  0  0
   -1.6232    1.3221    1.9780 H   0  0  0  0  0  0  0  0  0  0  0  0
   -2.8722    0.0695    2.0511 H   0  0  0  0  0  0  0  0  0  0  0  0
   -1.1751   -0.3979    1.9965 H   0  0  0  0  0  0  0  0  0  0  0  0
   -3.6414   -1.7718    1.0815 H   0  0  0  0  0  0  0  0  0  0  0  0
   -3.6407   -2.6051   -0.4521 H   0  0  0  0  0  0  0  0  0  0  0  0
   -5.1340    1.4156   -0.4683 H   0  0  0  0  0  0  0  0  0  0  0  0
   -4.6195    0.7927    1.0756 H   0  0  0  0  0  0  0  0  0  0  0  0
   -4.6709   -0.7028   -1.5918 H   0  0  0  0  0  0  0  0  0  0  0  0
   -5.6347   -1.0616   -0.1700 H   0  0  0  0  0  0  0  0  0  0  0  0
   -2.8517    2.2043    0.0743 H   0  0  0  0  0  0  0  0  0  0  0  0
   -2.9205    1.2732   -1.4245 H   0  0  0  0  0  0  0  0  0  0  0  0
   -2.0680   -1.0340   -1.4420 H   0  0  0  0  0  0  0  0  0  0  0  0
   -1.3975   -1.7229    0.0401 H   0  0  0  0  0  0  0  0  0  0  0  0
  1  2  1  0
  1  3  2  0
  1  5  2  0
  1  7  1  1
  2  6  1  0
  4  8  1  6
  4  9  1  0
  4 13  1  0
  4 14  1  0
  6  8  1  0
 10 12  1  0
 10 14  1  0
 11 12  1  0
 11 13  1  0
  2 15  1  0
  2 16  1  0
  6 17  1  0
  6 18  1  0
  8 19  1  0
  8 20  1  0
  9 21  1  0
  9 22  1  0
  9 23  1  0
 10 24  1  0
 10 25  1  0
 11 26  1  0
 11 27  1  0
 12 28  1  0
 12 29  1  0
 13 30  1  0
 13 31  1  0
 14 32  1  0
 14 33  1  0
M  CHG  2   4   1   7  -1
M  END
