
     RDKit          3D

 85 89  0  0  0  0  0  0  0  0999 V2000
    4.1927    1.2833    2.1812 C   0  0  2  0  0  0  0  0  0  0  0  0
    2.8446    1.6504    2.8227 C   0  0  1  0  0  0  0  0  0  0  0  0
    3.0317    2.5139    4.0515 C   0  0  0  0  0  0  0  0  0  0  0  0
    3.9658    0.5320    0.8727 C   0  0  1  0  0  0  0  0  0  0  0  0
  -10.0140   -2.6539   -0.2781 C   0  0  0  0  0  0  0  0  0  0  0  0
  -10.4333   -2.5986    1.0808 C   0  0  0  0  0  0  0  0  0  0  0  0
   -9.3938   -2.4150    1.9388 C   0  0  0  0  0  0  0  0  0  0  0  0
   -7.8983   -2.3118    1.1051 S   0  0  0  0  0  0  0  0  0  0  0  0
   -8.6671   -2.5172   -0.4231 C   0  0  0  0  0  0  0  0  0  0  0  0
   -7.8543   -2.5783   -1.6687 C   0  0  0  0  0  0  0  0  0  0  0  0
   -6.8787   -1.5661   -1.6104 O   0  0  0  0  0  0  0  0  0  0  0  0
   -4.8405   -0.6860   -2.3226 C   0  0  0  0  0  0  0  0  0  0  0  0
   -4.5121   -0.1346   -1.1143 C   0  0  0  0  0  0  0  0  0  0  0  0
   -3.9501   -0.2448   -3.2383 N   0  0  0  0  0  0  0  0  0  0  0  0
   -3.1029    0.5351   -2.6663 N   0  0  0  0  0  0  0  0  0  0  0  0
   -3.4242    0.6117   -1.3857 N   0  0  0  0  0  0  0  0  0  0  0  0
   -2.6891    1.4570   -0.4799 C   0  0  1  0  0  0  0  0  0  0  0  0
   -1.1811    1.3664   -0.7235 C   0  0  2  0  0  0  0  0  0  0  0  0
   -0.7258    0.0593   -0.5142 O   0  0  0  0  0  0  0  0  0  0  0  0
   -3.1418    2.7633   -0.6572 O   0  0  0  0  0  0  0  0  0  0  0  0
   -2.5900    3.6571    0.2949 C   0  0  2  0  0  0  0  0  0  0  0  0
   -3.2308    5.0088    0.0740 C   0  0  0  0  0  0  0  0  0  0  0  0
   -4.6100    4.9065    0.3272 O   0  0  0  0  0  0  0  0  0  0  0  0
   -1.0608    3.7139    0.1465 C   0  0  1  0  0  0  0  0  0  0  0  0
   -0.4848    4.5000    1.1552 O   0  0  0  0  0  0  0  0  0  0  0  0
   -0.4845    2.3057    0.2570 C   0  0  2  0  0  0  0  0  0  0  0  0
    0.8950    2.3533   -0.0364 O   0  0  0  0  0  0  0  0  0  0  0  0
    1.7325    1.6079    0.7721 C   0  0  1  0  0  0  0  0  0  0  0  0
    3.0009    1.2997   -0.0229 C   0  0  2  0  0  0  0  0  0  0  0  0
    2.7205    0.5163   -1.1521 O   0  0  0  0  0  0  0  0  0  0  0  0
    2.0507    2.3688    1.9031 O   0  0  0  0  0  0  0  0  0  0  0  0
    1.7838    2.7204    4.6656 O   0  0  0  0  0  0  0  0  0  0  0  0
    4.9526    0.4592    3.0281 O   0  0  0  0  0  0  0  0  0  0  0  0
    5.2286    0.3804    0.2525 O   0  0  0  0  0  0  0  0  0  0  0  0
    5.4643   -0.7917   -0.4398 C   0  0  2  0  0  0  0  0  0  0  0  0
    5.6165   -1.8399    0.4817 O   0  0  0  0  0  0  0  0  0  0  0  0
    5.7849   -3.0925   -0.1467 C   0  0  2  0  0  0  0  0  0  0  0  0
    5.7704   -4.1634    0.9220 C   0  0  0  0  0  0  0  0  0  0  0  0
    4.5075   -4.1691    1.5433 O   0  0  0  0  0  0  0  0  0  0  0  0
    7.0961   -3.0832   -0.9352 C   0  0  1  0  0  0  0  0  0  0  0  0
    7.2271   -4.3176   -1.5947 O   0  0  0  0  0  0  0  0  0  0  0  0
    7.0876   -1.9253   -1.9281 C   0  0  2  0  0  0  0  0  0  0  0  0
    8.3510   -1.8960   -2.5486 O   0  0  0  0  0  0  0  0  0  0  0  0
    6.7601   -0.6140   -1.2266 C   0  0  1  0  0  0  0  0  0  0  0  0
    6.6483    0.3824   -2.2110 O   0  0  0  0  0  0  0  0  0  0  0  0
    4.7257    2.2170    1.9482 H   0  0  0  0  0  0  0  0  0  0  0  0
    2.3356    0.7164    3.1153 H   0  0  0  0  0  0  0  0  0  0  0  0
    3.7296    2.0065    4.7274 H   0  0  0  0  0  0  0  0  0  0  0  0
    3.5034    3.4603    3.7514 H   0  0  0  0  0  0  0  0  0  0  0  0
    3.5290   -0.4488    1.1083 H   0  0  0  0  0  0  0  0  0  0  0  0
  -11.4629   -2.6810    1.3983 H   0  0  0  0  0  0  0  0  0  0  0  0
   -9.4267   -2.3182    3.0131 H   0  0  0  0  0  0  0  0  0  0  0  0
   -7.3739   -3.5625   -1.7631 H   0  0  0  0  0  0  0  0  0  0  0  0
   -8.5151   -2.4614   -2.5371 H   0  0  0  0  0  0  0  0  0  0  0  0
   -5.5409   -2.6509   -2.7547 H   0  0  0  0  0  0  0  0  0  0  0  0
   -6.3849   -1.3700   -3.6205 H   0  0  0  0  0  0  0  0  0  0  0  0
   -4.9415   -0.2102   -0.1303 H   0  0  0  0  0  0  0  0  0  0  0  0
   -2.9154    1.0921    0.5314 H   0  0  0  0  0  0  0  0  0  0  0  0
   -0.9702    1.7154   -1.7417 H   0  0  0  0  0  0  0  0  0  0  0  0
   -0.7069   -0.4074   -1.3544 H   0  0  0  0  0  0  0  0  0  0  0  0
   -2.8246    3.3069    1.3129 H   0  0  0  0  0  0  0  0  0  0  0  0
   -2.7509    5.7300    0.7452 H   0  0  0  0  0  0  0  0  0  0  0  0
   -3.0250    5.3387   -0.9539 H   0  0  0  0  0  0  0  0  0  0  0  0
   -5.0013    5.7729    0.1847 H   0  0  0  0  0  0  0  0  0  0  0  0
   -0.8252    4.1057   -0.8538 H   0  0  0  0  0  0  0  0  0  0  0  0
   -0.4464    5.4127    0.8566 H   0  0  0  0  0  0  0  0  0  0  0  0
   -0.6500    1.9440    1.2823 H   0  0  0  0  0  0  0  0  0  0  0  0
    1.2544    0.6634    1.0813 H   0  0  0  0  0  0  0  0  0  0  0  0
    3.4669    2.2579   -0.3018 H   0  0  0  0  0  0  0  0  0  0  0  0
    2.1216    1.0102   -1.7216 H   0  0  0  0  0  0  0  0  0  0  0  0
    1.9295    3.2329    5.4656 H   0  0  0  0  0  0  0  0  0  0  0  0
    5.5030    1.0116    3.5892 H   0  0  0  0  0  0  0  0  0  0  0  0
    4.6407   -1.0260   -1.1334 H   0  0  0  0  0  0  0  0  0  0  0  0
    4.9564   -3.2779   -0.8509 H   0  0  0  0  0  0  0  0  0  0  0  0
    5.9916   -5.1254    0.4491 H   0  0  0  0  0  0  0  0  0  0  0  0
    6.5791   -3.9625    1.6389 H   0  0  0  0  0  0  0  0  0  0  0  0
    4.4688   -4.9328    2.1256 H   0  0  0  0  0  0  0  0  0  0  0  0
    7.9217   -2.9252   -0.2226 H   0  0  0  0  0  0  0  0  0  0  0  0
    8.0461   -4.3017   -2.1012 H   0  0  0  0  0  0  0  0  0  0  0  0
    6.2942   -2.1245   -2.6662 H   0  0  0  0  0  0  0  0  0  0  0  0
    8.3071   -1.3148   -3.3142 H   0  0  0  0  0  0  0  0  0  0  0  0
    7.5630   -0.3851   -0.5087 H   0  0  0  0  0  0  0  0  0  0  0  0
    6.5512    1.2336   -1.7726 H   0  0  0  0  0  0  0  0  0  0  0  0
   -5.9407   -1.6321   -2.6515 C   0  0  0  0  0  0  0  0  0  0  0  0
  -10.6878   -2.7885   -1.1131 H   0  0  0  0  0  0  0  0  0  0  0  0
  7  6  2  0
  7  8  1  0
  6  5  1  0
  8  9  1  0
 41 40  1  0
 38 39  1  0
 38 37  1  0
  5  9  2  0
  9 10  1  0
 40 37  1  0
 40 42  1  0
 37 36  1  0
 43 42  1  0
 42 44  1  0
 10 11  1  0
 36 35  1  0
 11 84  1  0
 44 35  1  0
 44 45  1  0
 35 34  1  0
 84 12  1  0
 19 18  1  0
 12 14  1  0
 12 13  2  0
 34  4  1  0
 33  1  1  0
 30 29  1  0
  4  1  1  0
  4 29  1  0
 14 15  2  0
 13 16  1  0
 15 16  1  0
  1  2  1  0
 29 28  1  0
 16 17  1  0
  2  3  1  0
  2 31  1  0
 28 27  1  0
 28 31  1  0
 18 17  1  0
 18 26  1  0
 17 20  1  0
 27 26  1  0
  3 32  1  0
 26 24  1  0
 20 21  1  0
 24 21  1  0
 24 25  1  0
 21 22  1  0
 22 23  1  0
  1 46  1  6
  2 47  1  1
  3 48  1  0
  3 49  1  0
  4 50  1  1
  5 85  1  0
  6 51  1  0
  7 52  1  0
 10 53  1  0
 10 54  1  0
 84 55  1  0
 84 56  1  0
 13 57  1  0
 17 58  1  1
 18 59  1  6
 19 60  1  0
 21 61  1  1
 22 62  1  0
 22 63  1  0
 23 64  1  0
 24 65  1  6
 25 66  1  0
 26 67  1  1
 28 68  1  1
 29 69  1  6
 30 70  1  0
 32 71  1  0
 33 72  1  0
 35 73  1  6
 37 74  1  6
 38 75  1  0
 38 76  1  0
 39 77  1  0
 40 78  1  1
 41 79  1  0
 42 80  1  6
 43 81  1  0
 44 82  1  1
 45 83  1  0
M  END
