
     RDKit          3D

 47 51  0  0  0  0  0  0  0  0999 V2000
    5.1152   -2.2655   -2.5789 N   0  0  0  0  0  0  0  0  0  0  0  0
    4.3888   -1.9228   -1.4969 C   0  0  0  0  0  0  0  0  0  0  0  0
    4.9137   -2.2918   -0.3101 N   0  0  0  0  0  0  0  0  0  0  0  0
    3.2452   -1.2965   -1.6959 N   0  0  0  0  0  0  0  0  0  0  0  0
    2.5275   -1.0093   -0.5913 C   0  0  0  0  0  0  0  0  0  0  0  0
    1.2888   -0.3473   -0.7346 C   0  0  0  0  0  0  0  0  0  0  0  0
    0.5446   -0.0387    0.3742 C   0  0  0  0  0  0  0  0  0  0  0  0
    0.9656   -0.3779    1.6685 C   0  0  0  0  0  0  0  0  0  0  0  0
    2.1684   -1.0205    1.8240 C   0  0  0  0  0  0  0  0  0  0  0  0
    2.9587   -1.3402    0.7113 C   0  0  0  0  0  0  0  0  0  0  0  0
    4.2344   -2.0148    0.7805 C   0  0  0  0  0  0  0  0  0  0  0  0
    4.7613   -2.3744    1.9510 N   0  0  0  0  0  0  0  0  0  0  0  0
   -0.6944    0.6333    0.2121 N   0  0  0  0  0  0  0  0  0  0  0  0
   -0.9477    1.9806    0.2512 C   0  0  0  0  0  0  0  0  0  0  0  0
    0.0658    3.0051    0.4403 C   0  0  0  0  0  0  0  0  0  0  0  0
   -0.2478    4.2666    0.4968 N   0  0  0  0  0  0  0  0  0  0  0  0
    0.8506    5.0421    0.6759 C   0  0  0  0  0  0  0  0  0  0  0  0
    2.0331    4.3753    0.7595 C   0  0  0  0  0  0  0  0  0  0  0  0
    1.7625    2.6965    0.6072 S   0  0  0  0  0  0  0  0  0  0  0  0
   -2.2170    2.2545    0.0951 N   0  0  0  0  0  0  0  0  0  0  0  0
   -2.8358    1.0464   -0.0515 C   0  0  0  0  0  0  0  0  0  0  0  0
   -4.1925    0.7487   -0.2473 C   0  0  0  0  0  0  0  0  0  0  0  0
   -4.5580   -0.5739   -0.3654 C   0  0  0  0  0  0  0  0  0  0  0  0
   -5.8183   -1.0081   -0.5573 O   0  0  0  0  0  0  0  0  0  0  0  0
   -6.8465   -0.0422   -0.6207 C   0  0  0  0  0  0  0  0  0  0  0  0
   -3.5812   -1.6181   -0.2905 C   0  0  0  0  0  0  0  0  0  0  0  0
   -2.2448   -1.3314   -0.0972 C   0  0  0  0  0  0  0  0  0  0  0  0
   -1.9030    0.0148    0.0186 C   0  0  0  0  0  0  0  0  0  0  0  0
   -4.0794   -2.8583   -0.4223 O   0  0  0  0  0  0  0  0  0  0  0  0
   -3.1776   -3.9453   -0.3726 C   0  0  0  0  0  0  0  0  0  0  0  0
    6.0642   -2.5704   -2.4509 H   0  0  0  0  0  0  0  0  0  0  0  0
    4.8793   -1.8598   -3.4678 H   0  0  0  0  0  0  0  0  0  0  0  0
    0.9445   -0.0789   -1.7251 H   0  0  0  0  0  0  0  0  0  0  0  0
    0.3532   -0.1262    2.5234 H   0  0  0  0  0  0  0  0  0  0  0  0
    2.4887   -1.2708    2.8268 H   0  0  0  0  0  0  0  0  0  0  0  0
    5.6445   -2.8557    1.9696 H   0  0  0  0  0  0  0  0  0  0  0  0
    4.3056   -2.2129    2.8302 H   0  0  0  0  0  0  0  0  0  0  0  0
    0.7435    6.1151    0.7422 H   0  0  0  0  0  0  0  0  0  0  0  0
    3.0242    4.7762    0.9000 H   0  0  0  0  0  0  0  0  0  0  0  0
   -4.9148    1.5514   -0.2975 H   0  0  0  0  0  0  0  0  0  0  0  0
   -6.9238    0.5318    0.3068 H   0  0  0  0  0  0  0  0  0  0  0  0
   -6.7028    0.6534   -1.4523 H   0  0  0  0  0  0  0  0  0  0  0  0
   -7.7748   -0.5868   -0.7743 H   0  0  0  0  0  0  0  0  0  0  0  0
   -1.4916   -2.1049   -0.0392 H   0  0  0  0  0  0  0  0  0  0  0  0
   -2.4317   -3.8918   -1.1702 H   0  0  0  0  0  0  0  0  0  0  0  0
   -2.6613   -4.0013    0.5893 H   0  0  0  0  0  0  0  0  0  0  0  0
   -3.7711   -4.8463   -0.5047 H   0  0  0  0  0  0  0  0  0  0  0  0
 18 19  1  0
 18 17  2  0
 19 15  1  0
 17 16  1  0
 16 15  2  0
 15 14  1  0
 20 14  2  0
 20 21  1  0
 14 13  1  0
 21 22  2  0
 21 28  1  0
 22 23  1  0
 13 28  1  0
 13  7  1  0
 28 27  2  0
  6  7  1  0
  6  5  2  0
  7  8  2  0
 25 24  1  0
 23 24  1  0
 23 26  2  0
  4  5  1  0
  4  2  2  0
  5 10  1  0
  8  9  1  0
 27 26  1  0
  1  2  1  0
  2  3  1  0
 26 29  1  0
 10  9  2  0
 10 11  1  0
  3 11  2  0
 11 12  1  0
 29 30  1  0
  1 31  1  0
  1 32  1  0
  6 33  1  0
  8 34  1  0
  9 35  1  0
 12 36  1  0
 12 37  1  0
 17 38  1  0
 18 39  1  0
 22 40  1  0
 25 41  1  0
 25 42  1  0
 25 43  1  0
 27 44  1  0
 30 45  1  0
 30 46  1  0
 30 47  1  0
M  END
