
     RDKit          3D

  9  8  0  0  0  0  0  0  0  0999 V2000
    1.6309    1.5058   -1.6751 O   0  0  0  0  0  0  0  0  0  0  0  0
    1.9375    0.9626   -0.4069 C   0  0  0  0  0  0  0  0  0  0  0  0
    1.0838   -0.2406   -0.0510 C   0  0  0  0  0  0  0  0  0  0  0  0
    2.9986    0.6927   -0.3352 H   0  0  0  0  0  0  0  0  0  0  0  0
    1.7687    1.7619    0.3174 H   0  0  0  0  0  0  0  0  0  0  0  0
    1.3331   -0.6023    0.9474 H   0  0  0  0  0  0  0  0  0  0  0  0
    0.0219    0.0091   -0.0630 H   0  0  0  0  0  0  0  0  0  0  0  0
    1.2488   -1.0639   -0.7493 H   0  0  0  0  0  0  0  0  0  0  0  0
    1.7982    0.8276   -2.3366 H   0  0  0  0  0  0  0  0  0  0  0  0
  1  2  1  0
  2  3  1  0
  2  4  1  0
  2  5  1  0
  3  6  1  0
  3  7  1  0
  3  8  1  0
  9  1  1  0
M  END
