
     RDKit          3D

 47 46  0  0  0  0  0  0  0  0999 V2000
   -7.5321   -0.1694   -0.0396 C   0  0  0  0  0  0  0  0  0  0  0  0
   -6.2394    0.5798   -0.2026 C   0  0  0  0  0  0  0  0  0  0  0  0
   -5.0008   -0.2746    0.0098 C   0  0  0  0  0  0  0  0  0  0  0  0
   -3.7188    0.5298   -0.1624 C   0  0  0  0  0  0  0  0  0  0  0  0
   -2.4633   -0.3081    0.0404 C   0  0  0  0  0  0  0  0  0  0  0  0
   -1.1753    0.4878   -0.1255 C   0  0  0  0  0  0  0  0  0  0  0  0
    0.0791   -0.3526    0.0754 C   0  0  0  0  0  0  0  0  0  0  0  0
    1.3705    0.4372   -0.0945 C   0  0  0  0  0  0  0  0  0  0  0  0
    2.6213   -0.4088    0.1062 C   0  0  0  0  0  0  0  0  0  0  0  0
    3.9174    0.3738   -0.0675 C   0  0  0  0  0  0  0  0  0  0  0  0
    5.1552   -0.4884    0.1503 C   0  0  0  0  0  0  0  0  0  0  0  0
    6.4929    0.1993   -0.1340 C   0  0  2  0  0  0  0  0  0  0  0  0
    7.6321   -0.8194   -0.0250 C   0  0  0  0  0  0  0  0  0  0  0  0
    6.7210    1.3984    0.7818 C   0  0  0  0  0  0  0  0  0  0  0  0
    8.9898   -0.3096   -0.4895 C   0  0  0  0  0  0  0  0  0  0  0  0
   -7.6306   -1.3343    0.2569 O   0  0  0  0  0  0  0  0  0  0  0  0
   -8.5880    0.6099   -0.2611 O   0  0  0  0  0  0  0  0  0  0  0  0
   -6.2303    1.0296   -1.2008 H   0  0  0  0  0  0  0  0  0  0  0  0
   -6.2488    1.4240    0.4949 H   0  0  0  0  0  0  0  0  0  0  0  0
   -5.0209   -0.7152    1.0103 H   0  0  0  0  0  0  0  0  0  0  0  0
   -5.0025   -1.1100   -0.6957 H   0  0  0  0  0  0  0  0  0  0  0  0
   -3.6996    0.9778   -1.1620 H   0  0  0  0  0  0  0  0  0  0  0  0
   -3.7154    1.3670    0.5445 H   0  0  0  0  0  0  0  0  0  0  0  0
   -2.4845   -0.7590    1.0389 H   0  0  0  0  0  0  0  0  0  0  0  0
   -2.4670   -1.1434   -0.6686 H   0  0  0  0  0  0  0  0  0  0  0  0
   -1.1544    0.9404   -1.1233 H   0  0  0  0  0  0  0  0  0  0  0  0
   -1.1708    1.3223    0.5847 H   0  0  0  0  0  0  0  0  0  0  0  0
    0.0587   -0.8018    1.0747 H   0  0  0  0  0  0  0  0  0  0  0  0
    0.0714   -1.1899   -0.6317 H   0  0  0  0  0  0  0  0  0  0  0  0
    1.3920    0.8868   -1.0937 H   0  0  0  0  0  0  0  0  0  0  0  0
    1.3797    1.2737    0.6134 H   0  0  0  0  0  0  0  0  0  0  0  0
    2.6001   -0.8559    1.1065 H   0  0  0  0  0  0  0  0  0  0  0  0
    2.6076   -1.2476   -0.5989 H   0  0  0  0  0  0  0  0  0  0  0  0
    3.9475    0.8068   -1.0740 H   0  0  0  0  0  0  0  0  0  0  0  0
    3.9159    1.2200    0.6263 H   0  0  0  0  0  0  0  0  0  0  0  0
    5.1595   -0.8659    1.1803 H   0  0  0  0  0  0  0  0  0  0  0  0
    5.0805   -1.3720   -0.4935 H   0  0  0  0  0  0  0  0  0  0  0  0
    6.4684    0.5618   -1.1706 H   0  0  0  0  0  0  0  0  0  0  0  0
    7.7047   -1.1623    1.0133 H   0  0  0  0  0  0  0  0  0  0  0  0
    7.3660   -1.7023   -0.6148 H   0  0  0  0  0  0  0  0  0  0  0  0
    6.7268    1.0869    1.8299 H   0  0  0  0  0  0  0  0  0  0  0  0
    7.6741    1.8870    0.5776 H   0  0  0  0  0  0  0  0  0  0  0  0
    5.9432    2.1532    0.6650 H   0  0  0  0  0  0  0  0  0  0  0  0
    8.9498    0.0269   -1.5274 H   0  0  0  0  0  0  0  0  0  0  0  0
    9.3430    0.5274    0.1136 H   0  0  0  0  0  0  0  0  0  0  0  0
    9.7448   -1.0941   -0.4269 H   0  0  0  0  0  0  0  0  0  0  0  0
   -9.4036    0.0993   -0.1490 H   0  0  0  0  0  0  0  0  0  0  0  0
 16  1  2  0
  1 17  1  0
  1  2  1  0
  2  3  1  0
  3  4  1  0
  4  5  1  0
  5  6  1  0
  6  7  1  0
  7  8  1  0
  8  9  1  0
  9 10  1  0
 10 11  1  0
 11 12  1  0
 13 12  1  0
 13 15  1  0
 12 14  1  0
  2 18  1  0
  2 19  1  0
  3 20  1  0
  3 21  1  0
  4 22  1  0
  4 23  1  0
  5 24  1  0
  5 25  1  0
  6 26  1  0
  6 27  1  0
  7 28  1  0
  7 29  1  0
  8 30  1  0
  8 31  1  0
  9 32  1  0
  9 33  1  0
 10 34  1  0
 10 35  1  0
 11 36  1  0
 11 37  1  0
 12 38  1  6
 13 39  1  0
 13 40  1  0
 14 41  1  0
 14 42  1  0
 14 43  1  0
 15 44  1  0
 15 45  1  0
 15 46  1  0
 17 47  1  0
M  END
