
     RDKit          3D

 51 53  0  0  0  0  0  0  0  0999 V2000
   -2.2079   -0.6845   -1.5805 Cl  0  0  0  0  0  0  0  0  0  0  0  0
   -0.5189   -0.4826   -1.8897 C   0  0  0  0  0  0  0  0  0  0  0  0
   -0.1368    0.3955   -2.9056 C   0  0  0  0  0  0  0  0  0  0  0  0
   -1.0707    1.0854   -3.5926 O   0  0  0  0  0  0  0  0  0  0  0  0
   -1.4520    0.5002   -4.8352 C   0  0  0  0  0  0  0  0  0  0  0  0
    1.2120    0.5749   -3.1905 C   0  0  0  0  0  0  0  0  0  0  0  0
    1.5871    1.3984   -4.1968 O   0  0  0  0  0  0  0  0  0  0  0  0
    1.8406    2.7403   -3.7938 C   0  0  0  0  0  0  0  0  0  0  0  0
    2.1795   -0.1143   -2.4464 C   0  0  0  0  0  0  0  0  0  0  0  0
    3.4549    0.1203   -2.7849 O   0  0  0  0  0  0  0  0  0  0  0  0
    4.4771   -0.5691   -2.0901 C   0  0  0  0  0  0  0  0  0  0  0  0
    1.7740   -0.9673   -1.4275 C   0  0  0  0  0  0  0  0  0  0  0  0
    0.4262   -1.1498   -1.1256 C   0  0  0  0  0  0  0  0  0  0  0  0
    0.0411   -2.0595    0.0100 C   0  0  0  0  0  0  0  0  0  0  0  0
   -0.7746   -1.4467    1.1037 C   0  0  0  0  0  0  0  0  0  0  0  0
   -1.7672   -2.0703    1.6720 N   0  0  0  0  0  0  0  0  0  0  0  0
   -2.2160   -1.2163    2.6403 C   0  0  0  0  0  0  0  0  0  0  0  0
   -3.2589   -1.2931    3.5822 C   0  0  0  0  0  0  0  0  0  0  0  0
   -4.0595   -2.3487    3.6912 N   0  0  0  0  0  0  0  0  0  0  0  0
   -1.4682   -0.0531    2.6434 C   0  0  0  0  0  0  0  0  0  0  0  0
   -1.6414    0.9946    3.4544 N   0  0  0  0  0  0  0  0  0  0  0  0
   -2.6364    0.7813    4.2689 C   0  0  0  0  0  0  0  0  0  0  0  0
   -3.4415   -0.2466    4.4003 N   0  0  0  0  0  0  0  0  0  0  0  0
   -0.5449   -0.2050    1.6566 N   0  0  0  0  0  0  0  0  0  0  0  0
    0.4765    0.7723    1.3296 C   0  0  0  0  0  0  0  0  0  0  0  0
    1.8613    0.3665    1.8145 C   0  0  0  0  0  0  0  0  0  0  0  0
    2.9055    1.3462    1.2782 C   0  0  0  0  0  0  0  0  0  0  0  0
    4.2632    0.9761    1.6516 C   0  0  0  0  0  0  0  0  0  0  0  0
    5.3780    0.6501    1.9623 C   0  0  0  0  0  0  0  0  0  0  0  0
   -2.8848    1.7758    5.1200 F   0  0  0  0  0  0  0  0  0  0  0  0
   -2.2505    1.1167   -5.2419 H   0  0  0  0  0  0  0  0  0  0  0  0
   -0.6214    0.4838   -5.5422 H   0  0  0  0  0  0  0  0  0  0  0  0
   -1.8259   -0.5170   -4.6995 H   0  0  0  0  0  0  0  0  0  0  0  0
    2.1241    3.2933   -4.6868 H   0  0  0  0  0  0  0  0  0  0  0  0
    0.9517    3.2031   -3.3600 H   0  0  0  0  0  0  0  0  0  0  0  0
    2.6584    2.7974   -3.0717 H   0  0  0  0  0  0  0  0  0  0  0  0
    5.4173   -0.2536   -2.5347 H   0  0  0  0  0  0  0  0  0  0  0  0
    4.4917   -0.3180   -1.0261 H   0  0  0  0  0  0  0  0  0  0  0  0
    4.3817   -1.6522   -2.1954 H   0  0  0  0  0  0  0  0  0  0  0  0
    2.5057   -1.5020   -0.8359 H   0  0  0  0  0  0  0  0  0  0  0  0
   -0.5400   -2.9059   -0.3615 H   0  0  0  0  0  0  0  0  0  0  0  0
    0.9513   -2.4852    0.4408 H   0  0  0  0  0  0  0  0  0  0  0  0
   -4.7943   -2.3674    4.3772 H   0  0  0  0  0  0  0  0  0  0  0  0
   -3.9370   -3.1521    3.1001 H   0  0  0  0  0  0  0  0  0  0  0  0
    0.4792    0.9388    0.2532 H   0  0  0  0  0  0  0  0  0  0  0  0
    0.1750    1.7117    1.7919 H   0  0  0  0  0  0  0  0  0  0  0  0
    1.8858    0.3508    2.9057 H   0  0  0  0  0  0  0  0  0  0  0  0
    2.1038   -0.6432    1.4785 H   0  0  0  0  0  0  0  0  0  0  0  0
    2.8364    1.3918    0.1869 H   0  0  0  0  0  0  0  0  0  0  0  0
    2.6930    2.3565    1.6380 H   0  0  0  0  0  0  0  0  0  0  0  0
    6.3670    0.3693    2.2438 H   0  0  0  0  0  0  0  0  0  0  0  0
  1  2  1  0
  2  3  2  0
  2 13  1  0
  3  4  1  0
  3  6  1  0
  4  5  1  0
  5 31  1  0
  5 32  1  0
  5 33  1  0
  6  7  1  0
  6  9  2  0
  7  8  1  0
  8 34  1  0
  8 35  1  0
  8 36  1  0
  9 10  1  0
  9 12  1  0
 10 11  1  0
 11 37  1  0
 11 38  1  0
 11 39  1  0
 12 13  2  0
 12 40  1  0
 13 14  1  0
 14 15  1  0
 14 41  1  0
 14 42  1  0
 15 16  2  0
 15 24  1  0
 16 17  1  0
 17 18  2  0
 17 20  1  0
 18 19  1  0
 18 23  1  0
 19 43  1  0
 19 44  1  0
 20 21  2  0
 20 24  1  0
 21 22  1  0
 22 23  2  0
 22 30  1  0
 24 25  1  0
 25 26  1  0
 25 45  1  0
 25 46  1  0
 26 27  1  0
 26 47  1  0
 26 48  1  0
 27 28  1  0
 27 49  1  0
 27 50  1  0
 28 29  3  0
 29 51  1  0
M  END
