
     RDKit          3D

 24 24  0  0  0  0  0  0  0  0999 V2000
   -1.3836    0.2729   -0.4307 C   0  0  2  0  0  0  0  0  0  0  0  0
   -0.2264    0.5697   -1.3908 C   0  0  1  0  0  0  0  0  0  0  0  0
    0.9355   -0.3602   -1.0947 C   0  0  2  0  0  0  0  0  0  0  0  0
    1.4597   -0.0525    0.3044 C   0  0  0  0  0  0  0  0  0  0  0  0
    0.3712    0.0590    1.3324 C   0  0  0  0  0  0  0  0  0  0  0  0
    0.8544   -0.0028    2.7488 C   0  0  0  0  0  0  0  0  0  0  0  0
   -0.9050    0.2180    0.9916 C   0  0  0  0  0  0  0  0  0  0  0  0
   -2.0162   -0.9989   -0.7783 N   0  0  0  0  0  0  0  0  0  0  0  0
   -0.6127    0.4178   -2.7367 O   0  0  0  0  0  0  0  0  0  0  0  0
    1.9357   -0.1711   -2.0710 O   0  0  0  0  0  0  0  0  0  0  0  0
   -0.1924    0.1969    3.6606 O   0  0  0  0  0  0  0  0  0  0  0  0
   -2.0919    1.1141   -0.5086 H   0  0  0  0  0  0  0  0  0  0  0  0
    0.1058    1.6025   -1.1989 H   0  0  0  0  0  0  0  0  0  0  0  0
    0.5620   -1.3934   -1.1123 H   0  0  0  0  0  0  0  0  0  0  0  0
    2.0249    0.8873    0.2757 H   0  0  0  0  0  0  0  0  0  0  0  0
    2.1790   -0.8226    0.6056 H   0  0  0  0  0  0  0  0  0  0  0  0
    1.3419   -0.9784    2.8975 H   0  0  0  0  0  0  0  0  0  0  0  0
    1.6500    0.7476    2.8715 H   0  0  0  0  0  0  0  0  0  0  0  0
   -1.6684    0.2945    1.7577 H   0  0  0  0  0  0  0  0  0  0  0  0
   -2.7375   -1.2058   -0.0982 H   0  0  0  0  0  0  0  0  0  0  0  0
   -2.4945   -0.9067   -1.6658 H   0  0  0  0  0  0  0  0  0  0  0  0
   -1.2731    1.0895   -2.9344 H   0  0  0  0  0  0  0  0  0  0  0  0
    2.6618   -0.7691   -1.8678 H   0  0  0  0  0  0  0  0  0  0  0  0
    0.1715    0.1385    4.5483 H   0  0  0  0  0  0  0  0  0  0  0  0
  1  2  1  0
  1  7  1  0
  1  8  1  0
  1 12  1  1
  2  3  1  0
  2  9  1  0
  2 13  1  6
  3  4  1  0
  3 10  1  0
  3 14  1  1
  4  5  1  0
  4 15  1  0
  4 16  1  0
  5  6  1  0
  5  7  2  0
  6 11  1  0
  6 17  1  0
  6 18  1  0
  7 19  1  0
  8 20  1  0
  8 21  1  0
  9 22  1  0
 10 23  1  0
 11 24  1  0
M  END
