
     RDKit          3D

 50 49  0  0  0  0  0  0  0  0999 V2000
    0.5269    1.4387   -9.5874 O   0  0  0  0  0  0  0  0  0  0  0  0
    0.1455    0.5089   -8.7149 C   0  0  0  0  0  0  0  0  0  0  0  0
   -0.1174   -0.6224   -9.0397 O   0  0  0  0  0  0  0  0  0  0  0  0
    0.0520    1.0576   -7.3187 C   0  0  0  0  0  0  0  0  0  0  0  0
   -0.3817    0.0346   -6.2816 C   0  0  0  0  0  0  0  0  0  0  0  0
   -0.4795    0.6482   -4.8913 C   0  0  0  0  0  0  0  0  0  0  0  0
   -0.8955   -0.3533   -3.8219 C   0  0  0  0  0  0  0  0  0  0  0  0
   -1.0145    0.2733   -2.4381 C   0  0  0  0  0  0  0  0  0  0  0  0
   -1.3942   -0.7254   -1.3530 C   0  0  0  0  0  0  0  0  0  0  0  0
   -1.5342   -0.0749    0.0233 C   0  0  0  0  0  0  0  0  0  0  0  0
   -1.9285   -1.0558    1.0817 C   0  0  0  0  0  0  0  0  0  0  0  0
   -1.3175   -1.2879    2.2425 C   0  0  0  0  0  0  0  0  0  0  0  0
   -0.1067   -0.5809    2.7854 C   0  0  0  0  0  0  0  0  0  0  0  0
   -0.5231    0.4393    3.8059 C   0  0  0  0  0  0  0  0  0  0  0  0
   -0.2379    0.4587    5.1065 C   0  0  0  0  0  0  0  0  0  0  0  0
    0.6327   -0.4951    5.8735 C   0  0  0  0  0  0  0  0  0  0  0  0
    1.8678    0.2137    6.3520 C   0  0  0  0  0  0  0  0  0  0  0  0
    2.1924    0.5316    7.6043 C   0  0  0  0  0  0  0  0  0  0  0  0
    1.4281    0.2312    8.8560 C   0  0  0  0  0  0  0  0  0  0  0  0
    2.2474   -0.6106    9.8331 C   0  0  0  0  0  0  0  0  0  0  0  0
    0.5568    1.0612  -10.4791 H   0  0  0  0  0  0  0  0  0  0  0  0
   -0.6439    1.9030   -7.3385 H   0  0  0  0  0  0  0  0  0  0  0  0
    1.0246    1.4840   -7.0532 H   0  0  0  0  0  0  0  0  0  0  0  0
    0.3243   -0.8000   -6.2665 H   0  0  0  0  0  0  0  0  0  0  0  0
   -1.3517   -0.3857   -6.5631 H   0  0  0  0  0  0  0  0  0  0  0  0
   -1.1956    1.4775   -4.9090 H   0  0  0  0  0  0  0  0  0  0  0  0
    0.4859    1.0871   -4.6162 H   0  0  0  0  0  0  0  0  0  0  0  0
   -0.1730   -1.1760   -3.7883 H   0  0  0  0  0  0  0  0  0  0  0  0
   -1.8552   -0.8022   -4.1007 H   0  0  0  0  0  0  0  0  0  0  0  0
   -1.7571    1.0787   -2.4674 H   0  0  0  0  0  0  0  0  0  0  0  0
   -0.0644    0.7493   -2.1730 H   0  0  0  0  0  0  0  0  0  0  0  0
   -0.6404   -1.5174   -1.3014 H   0  0  0  0  0  0  0  0  0  0  0  0
   -2.3364   -1.2148   -1.6214 H   0  0  0  0  0  0  0  0  0  0  0  0
   -2.2957    0.7098   -0.0359 H   0  0  0  0  0  0  0  0  0  0  0  0
   -0.6018    0.4311    0.2860 H   0  0  0  0  0  0  0  0  0  0  0  0
   -2.8164   -1.6433    0.8599 H   0  0  0  0  0  0  0  0  0  0  0  0
   -1.7438   -2.0390    2.9010 H   0  0  0  0  0  0  0  0  0  0  0  0
    0.4446   -0.0845    1.9829 H   0  0  0  0  0  0  0  0  0  0  0  0
    0.5739   -1.3119    3.2260 H   0  0  0  0  0  0  0  0  0  0  0  0
   -1.1546    1.2349    3.4195 H   0  0  0  0  0  0  0  0  0  0  0  0
   -0.6494    1.2707    5.6999 H   0  0  0  0  0  0  0  0  0  0  0  0
    0.9221   -1.3462    5.2518 H   0  0  0  0  0  0  0  0  0  0  0  0
    0.0667   -0.9024    6.7150 H   0  0  0  0  0  0  0  0  0  0  0  0
    2.5556    0.5036    5.5624 H   0  0  0  0  0  0  0  0  0  0  0  0
    3.1306    1.0614    7.7542 H   0  0  0  0  0  0  0  0  0  0  0  0
    0.4924   -0.2795    8.6271 H   0  0  0  0  0  0  0  0  0  0  0  0
    1.1515    1.1726    9.3423 H   0  0  0  0  0  0  0  0  0  0  0  0
    1.6830   -0.8178   10.7430 H   0  0  0  0  0  0  0  0  0  0  0  0
    2.5271   -1.5661    9.3880 H   0  0  0  0  0  0  0  0  0  0  0  0
    3.1650   -0.0964   10.1228 H   0  0  0  0  0  0  0  0  0  0  0  0
  1  2  1  0
  1 21  1  0
  2  3  2  0
  2  4  1  0
  4  5  1  0
  4 22  1  0
  4 23  1  0
  5  6  1  0
  5 24  1  0
  5 25  1  0
  6  7  1  0
  6 26  1  0
  6 27  1  0
  7  8  1  0
  7 28  1  0
  7 29  1  0
  8  9  1  0
  8 30  1  0
  8 31  1  0
  9 10  1  0
  9 32  1  0
  9 33  1  0
 10 11  1  0
 10 34  1  0
 10 35  1  0
 11 12  2  0
 11 36  1  0
 12 13  1  0
 12 37  1  0
 13 14  1  0
 13 38  1  0
 13 39  1  0
 14 15  2  0
 14 40  1  0
 15 16  1  0
 15 41  1  0
 16 17  1  0
 16 42  1  0
 16 43  1  0
 17 18  2  0
 17 44  1  0
 18 19  1  0
 18 45  1  0
 19 20  1  0
 19 46  1  0
 19 47  1  0
 20 48  1  0
 20 49  1  0
 20 50  1  0
M  END
