
     RDKit          3D

 48 50  0  0  0  0  0  0  0  0999 V2000
   -2.0986   -0.6211    0.8823 C   0  0  0  0  0  0  0  0  0  0  0  0
   -3.3693   -0.7992    0.2983 C   0  0  0  0  0  0  0  0  0  0  0  0
   -5.2330   -0.1554   -1.2803 C   0  0  0  0  0  0  0  0  0  0  0  0
   -0.9640    2.4907   -0.9731 C   0  0  0  0  0  0  0  0  0  0  0  0
    1.1624   -0.7042   -0.5139 C   0  0  0  0  0  0  0  0  0  0  0  0
    2.1991   -0.7297   -1.6223 C   0  0  0  0  0  0  0  0  0  0  0  0
    3.5959   -0.4549   -1.0793 C   0  0  1  0  0  0  0  0  0  0  0  0
    3.5535    0.8287   -0.2697 C   0  0  0  0  0  0  0  0  0  0  0  0
    2.4643    0.8156    0.8044 C   0  0  1  0  0  0  0  0  0  0  0  0
    2.5319    2.0946    1.6260 C   0  0  0  0  0  0  0  0  0  0  0  0
   -3.9327   -1.9118    0.8594 N   0  0  0  0  0  0  0  0  0  0  0  0
   -3.0696   -2.4429    1.7730 C   0  0  0  0  0  0  0  0  0  0  0  0
   -1.9319   -1.6896    1.8223 C   0  0  0  0  0  0  0  0  0  0  0  0
   -3.8783    0.0599   -0.6774 C   0  0  0  0  0  0  0  0  0  0  0  0
   -1.2868    0.4579    0.4895 C   0  0  0  0  0  0  0  0  0  0  0  0
   -1.7768    1.3266   -0.4780 C   0  0  0  0  0  0  0  0  0  0  0  0
   -3.0533    1.1098   -1.0364 C   0  0  0  0  0  0  0  0  0  0  0  0
    0.0619    0.6623    1.1273 C   0  0  0  0  0  0  0  0  0  0  0  0
    1.1651    0.5696    0.1863 N   0  0  0  0  0  0  0  0  0  0  0  0
    4.0645   -1.4815   -0.2247 O   0  0  0  0  0  0  0  0  0  0  0  0
   -6.0220   -0.1018   -0.5267 H   0  0  0  0  0  0  0  0  0  0  0  0
   -5.4489    0.5948   -2.0396 H   0  0  0  0  0  0  0  0  0  0  0  0
   -5.3101   -1.1376   -1.7523 H   0  0  0  0  0  0  0  0  0  0  0  0
   -0.2180    2.1724   -1.7023 H   0  0  0  0  0  0  0  0  0  0  0  0
   -1.6034    3.2341   -1.4499 H   0  0  0  0  0  0  0  0  0  0  0  0
   -0.4083    2.9797   -0.1739 H   0  0  0  0  0  0  0  0  0  0  0  0
    0.1759   -0.8612   -0.9513 H   0  0  0  0  0  0  0  0  0  0  0  0
    1.3312   -1.5472    0.1800 H   0  0  0  0  0  0  0  0  0  0  0  0
    2.1505   -1.6826   -2.1552 H   0  0  0  0  0  0  0  0  0  0  0  0
    1.9618    0.0471   -2.3547 H   0  0  0  0  0  0  0  0  0  0  0  0
    4.2990   -0.3372   -1.9185 H   0  0  0  0  0  0  0  0  0  0  0  0
    4.5260    1.0031    0.1991 H   0  0  0  0  0  0  0  0  0  0  0  0
    3.3717    1.6606   -0.9532 H   0  0  0  0  0  0  0  0  0  0  0  0
    2.6983    0.0109    1.5277 H   0  0  0  0  0  0  0  0  0  0  0  0
    1.8763    2.0221    2.5026 H   0  0  0  0  0  0  0  0  0  0  0  0
    3.5553    2.1581    2.0216 H   0  0  0  0  0  0  0  0  0  0  0  0
    3.4910   -3.1969   -1.2759 H   0  0  0  0  0  0  0  0  0  0  0  0
    5.0734   -2.5304   -1.7092 H   0  0  0  0  0  0  0  0  0  0  0  0
    4.8461   -3.3454   -0.1526 H   0  0  0  0  0  0  0  0  0  0  0  0
   -4.8431   -2.2830    0.6468 H   0  0  0  0  0  0  0  0  0  0  0  0
   -3.3342   -3.3297    2.3263 H   0  0  0  0  0  0  0  0  0  0  0  0
   -1.0833   -1.8806    2.4592 H   0  0  0  0  0  0  0  0  0  0  0  0
   -3.4101    1.8081   -1.7867 H   0  0  0  0  0  0  0  0  0  0  0  0
    0.0685    1.6579    1.5760 H   0  0  0  0  0  0  0  0  0  0  0  0
    0.1807   -0.0507    1.9601 H   0  0  0  0  0  0  0  0  0  0  0  0
    2.3180    3.9992    1.3794 H   0  0  0  0  0  0  0  0  0  0  0  0
    2.2120    3.2147    0.8343 O   0  0  0  0  0  0  0  0  0  0  0  0
    4.3732   -2.6841   -0.8786 C   0  0  0  0  0  0  0  0  0  0  0  0
 48 20  1  0
  7  6  1  0
  7 20  1  0
  7  8  1  0
  6  5  1  0
  8  9  1  0
  5 19  1  0
  9 19  1  0
  9 10  1  0
 19 18  1  0
 47 10  1  0
 12 13  2  0
 12 11  1  0
 13  1  1  0
 11  2  1  0
 18 15  1  0
  1  2  2  0
  1 15  1  0
  2 14  1  0
 15 16  2  0
 14  3  1  0
 14 17  2  0
 16 17  1  0
 16  4  1  0
  3 21  1  0
  3 22  1  0
  3 23  1  0
  4 24  1  0
  4 25  1  0
  4 26  1  0
  5 27  1  0
  5 28  1  0
  6 29  1  0
  6 30  1  0
  7 31  1  6
  8 32  1  0
  8 33  1  0
  9 34  1  1
 10 35  1  0
 10 36  1  0
 48 37  1  0
 48 38  1  0
 48 39  1  0
 11 40  1  0
 12 41  1  0
 13 42  1  0
 17 43  1  0
 18 44  1  0
 18 45  1  0
 47 46  1  0
M  END
