
     RDKit          3D

 22 21  0  0  0  0  0  0  0  0999 V2000
   -0.2999   -0.1531    4.4535 O   0  0  0  0  0  0  0  0  0  0  0  0
    0.4776    0.1242    3.3125 C   0  0  0  0  0  0  0  0  0  0  0  0
   -0.3685   -0.1190    2.0727 C   0  0  1  0  0  0  0  0  0  0  0  0
   -1.5375    0.6680    2.0748 O   0  0  0  0  0  0  0  0  0  0  0  0
    0.4507    0.1094    0.7906 C   0  0  1  0  0  0  0  0  0  0  0  0
    1.6066   -0.6967    0.7602 O   0  0  0  0  0  0  0  0  0  0  0  0
   -0.4026   -0.1101   -0.4503 C   0  0  0  0  0  0  0  0  0  0  0  0
    1.2842    0.9461   -1.7922 O   0  0  0  0  0  0  0  0  0  0  0  0
    0.2805    0.2898   -1.7203 C   0  0  0  0  0  0  0  0  0  0  0  0
   -0.4160   -0.1656   -3.0150 C   0  0  0  0  0  0  0  0  0  0  0  0
    0.1586    0.3483   -4.0794 O   0  0  0  0  0  0  0  0  0  0  0  0
   -1.3674   -0.8998   -3.0161 O   0  0  0  0  0  0  0  0  0  0  0  0
    0.2586   -0.0353    5.2266 H   0  0  0  0  0  0  0  0  0  0  0  0
    0.8269    1.1688    3.3048 H   0  0  0  0  0  0  0  0  0  0  0  0
    1.3705   -0.5078    3.2697 H   0  0  0  0  0  0  0  0  0  0  0  0
   -0.7158   -1.1600    2.0825 H   0  0  0  0  0  0  0  0  0  0  0  0
   -1.2852    1.5949    2.1522 H   0  0  0  0  0  0  0  0  0  0  0  0
    0.8142    1.1428    0.7989 H   0  0  0  0  0  0  0  0  0  0  0  0
    1.3362   -1.6218    0.7571 H   0  0  0  0  0  0  0  0  0  0  0  0
   -0.7289   -1.1528   -0.5189 H   0  0  0  0  0  0  0  0  0  0  0  0
   -1.3287    0.4723   -0.3937 H   0  0  0  0  0  0  0  0  0  0  0  0
   -0.2955    0.0525   -4.8834 H   0  0  0  0  0  0  0  0  0  0  0  0
  1  2  1  0
  1 13  1  0
  2  3  1  0
  2 14  1  0
  2 15  1  0
  3  4  1  0
  3  5  1  0
  3 16  1  1
  4 17  1  0
  5  6  1  0
  5  7  1  0
  5 18  1  1
  6 19  1  0
  7  9  1  0
  7 20  1  0
  7 21  1  0
  8  9  2  0
  9 10  1  0
 10 11  1  0
 10 12  2  0
 11 22  1  0
M  END
