
     RDKit          3D

 12 12  0  0  0  0  0  0  0  0999 V2000
    1.0476   -2.3574    0.0517 O   0  0  0  0  0  0  0  0  0  0  0  0
    0.4716   -1.3037    0.0308 C   0  0  0  0  0  0  0  0  0  0  0  0
    1.2397    0.0120    0.0212 C   0  0  0  0  0  0  0  0  0  0  0  0
    2.4316    0.0193    0.0265 O   0  0  0  0  0  0  0  0  0  0  0  0
    0.4556    1.3182    0.0058 C   0  0  0  0  0  0  0  0  0  0  0  0
    1.0186    2.3791    0.0055 O   0  0  0  0  0  0  0  0  0  0  0  0
   -0.8990    1.1723   -0.0084 N   0  0  0  0  0  0  0  0  0  0  0  0
   -1.6194   -0.0058   -0.0077 C   0  0  0  0  0  0  0  0  0  0  0  0
   -2.8217   -0.0133   -0.0229 O   0  0  0  0  0  0  0  0  0  0  0  0
   -0.8847   -1.1748    0.0135 N   0  0  0  0  0  0  0  0  0  0  0  0
   -1.4329   -2.0284    0.0166 H   0  0  0  0  0  0  0  0  0  0  0  0
   -1.4577    2.0189   -0.0201 H   0  0  0  0  0  0  0  0  0  0  0  0
  1  2  2  0
  2  3  1  0
  2 10  1  0
  3  4  2  0
  3  5  1  0
  5  6  2  0
  5  7  1  0
  7  8  1  0
  8  9  2  0
  8 10  1  0
 10 11  1  0
  7 12  1  0
M  END
