
     RDKit          3D

 53 52  0  0  0  0  0  0  0  0999 V2000
    6.6640   -0.1202    0.4441 C   0  0  1  0  0  0  0  0  0  0  0  0
   -8.4681    1.1175    0.0110 O   0  0  0  0  0  0  0  0  0  0  0  0
    5.4170   -0.6677   -0.2872 C   0  0  1  0  0  0  0  0  0  0  0  0
    6.6080    2.2384    0.9221 O   0  0  0  0  0  0  0  0  0  0  0  0
   -7.9515    0.0947    0.4063 C   0  0  0  0  0  0  0  0  0  0  0  0
    7.9152   -0.8806    0.0342 C   0  0  0  0  0  0  0  0  0  0  0  0
   -8.6036   -0.7763    1.1823 O   0  0  0  0  0  0  0  0  0  0  0  0
    4.1224   -0.0780    0.2575 C   0  0  0  0  0  0  0  0  0  0  0  0
    9.0026   -0.3192    0.7357 O   0  0  0  0  0  0  0  0  0  0  0  0
   -6.5875   -0.3598    0.1391 C   0  0  0  0  0  0  0  0  0  0  0  0
    5.5249   -0.5365   -1.6894 O   0  0  0  0  0  0  0  0  0  0  0  0
   -3.8047   -0.7227    1.5667 C   0  0  0  0  0  0  0  0  0  0  0  0
    6.8707    1.3412    0.1597 C   0  0  0  0  0  0  0  0  0  0  0  0
   -5.7171    0.2464   -0.6942 C   0  0  0  0  0  0  0  0  0  0  0  0
    2.8719   -0.7233   -0.3272 C   0  0  0  0  0  0  0  0  0  0  0  0
    1.5865   -0.1375    0.2439 C   0  0  0  0  0  0  0  0  0  0  0  0
   -4.3539   -0.2623   -0.8504 C   0  0  0  0  0  0  0  0  0  0  0  0
   -1.2223    1.2104   -0.2244 C   0  0  0  0  0  0  0  0  0  0  0  0
   -2.1296   -1.1451   -0.2959 C   0  0  0  0  0  0  0  0  0  0  0  0
   -0.9843   -0.2382    0.1870 C   0  0  1  0  0  0  0  0  0  0  0  0
    0.3407   -0.7805   -0.3529 C   0  0  0  0  0  0  0  0  0  0  0  0
   -6.0389    1.4426   -1.5446 C   0  0  0  0  0  0  0  0  0  0  0  0
    6.4927   -0.2459    1.5177 H   0  0  0  0  0  0  0  0  0  0  0  0
    5.4029   -1.7466   -0.0933 H   0  0  0  0  0  0  0  0  0  0  0  0
    7.7807   -1.9444    0.2671 H   0  0  0  0  0  0  0  0  0  0  0  0
    8.0530   -0.8020   -1.0508 H   0  0  0  0  0  0  0  0  0  0  0  0
   -9.4994   -0.4516    1.3539 H   0  0  0  0  0  0  0  0  0  0  0  0
    4.1217   -0.2007    1.3447 H   0  0  0  0  0  0  0  0  0  0  0  0
    4.0932    1.0040    0.0793 H   0  0  0  0  0  0  0  0  0  0  0  0
    9.8148   -0.7144    0.4055 H   0  0  0  0  0  0  0  0  0  0  0  0
   -6.2818   -1.2644    0.6489 H   0  0  0  0  0  0  0  0  0  0  0  0
    5.2107    0.3346   -1.9530 H   0  0  0  0  0  0  0  0  0  0  0  0
   -4.0438   -1.7395    1.8890 H   0  0  0  0  0  0  0  0  0  0  0  0
   -2.9317   -0.4133    2.1434 H   0  0  0  0  0  0  0  0  0  0  0  0
   -4.6404   -0.0842    1.8464 H   0  0  0  0  0  0  0  0  0  0  0  0
    7.2835    1.5632   -0.8426 H   0  0  0  0  0  0  0  0  0  0  0  0
    2.8632   -0.6053   -1.4146 H   0  0  0  0  0  0  0  0  0  0  0  0
    2.8987   -1.8021   -0.1387 H   0  0  0  0  0  0  0  0  0  0  0  0
    1.5754   -0.2650    1.3320 H   0  0  0  0  0  0  0  0  0  0  0  0
    1.5793    0.9424    0.0660 H   0  0  0  0  0  0  0  0  0  0  0  0
   -3.9731   -0.2158   -1.8677 H   0  0  0  0  0  0  0  0  0  0  0  0
   -2.1269    1.6145    0.2315 H   0  0  0  0  0  0  0  0  0  0  0  0
   -0.3940    1.8551    0.0701 H   0  0  0  0  0  0  0  0  0  0  0  0
   -1.3392    1.2908   -1.3085 H   0  0  0  0  0  0  0  0  0  0  0  0
   -1.9622   -2.1530    0.1016 H   0  0  0  0  0  0  0  0  0  0  0  0
   -2.0712   -1.2244   -1.3855 H   0  0  0  0  0  0  0  0  0  0  0  0
   -0.9370   -0.2863    1.2817 H   0  0  0  0  0  0  0  0  0  0  0  0
    0.3577   -0.6627   -1.4431 H   0  0  0  0  0  0  0  0  0  0  0  0
    0.3834   -1.8597   -0.1672 H   0  0  0  0  0  0  0  0  0  0  0  0
   -6.0369    2.3510   -0.9395 H   0  0  0  0  0  0  0  0  0  0  0  0
   -5.2840    1.5681   -2.3193 H   0  0  0  0  0  0  0  0  0  0  0  0
   -7.0149    1.3751   -2.0184 H   0  0  0  0  0  0  0  0  0  0  0  0
   -3.5068   -0.6904    0.0998 C   0  0  0  0  0  0  0  0  0  0  0  0
  1  3  1  0
  2  5  2  0
  3 11  1  0
  3  8  1  0
  4 13  2  0
  5  7  1  0
  6  1  1  0
  9  6  1  0
 10  5  1  0
 10 14  2  0
 12 53  1  0
 13  1  1  0
 14 22  1  0
 15  8  1  0
 15 16  1  0
 16 21  1  0
 17 14  1  0
 53 17  2  0
 19 53  1  0
 20 18  1  0
 20 19  1  0
 21 20  1  0
  1 23  1  1
  3 24  1  6
  6 25  1  0
  6 26  1  0
  7 27  1  0
  8 28  1  0
  8 29  1  0
  9 30  1  0
 10 31  1  0
 11 32  1  0
 12 33  1  0
 12 34  1  0
 12 35  1  0
 13 36  1  0
 15 37  1  0
 15 38  1  0
 16 39  1  0
 16 40  1  0
 17 41  1  0
 18 42  1  0
 18 43  1  0
 18 44  1  0
 19 45  1  0
 19 46  1  0
 20 47  1  1
 21 48  1  0
 21 49  1  0
 22 50  1  0
 22 51  1  0
 22 52  1  0
M  END
