
     RDKit          3D

 30 31  0  0  0  0  0  0  0  0999 V2000
    2.2449   -0.1725   -0.9662 C   0  0  0  0  0  0  0  0  0  0  0  0
    0.7907   -0.3638   -0.7302 C   0  0  0  0  0  0  0  0  0  0  0  0
   -0.2269    0.5018   -0.5113 C   0  0  0  0  0  0  0  0  0  0  0  0
    0.3139   -1.6122   -0.6898 O   0  0  0  0  0  0  0  0  0  0  0  0
   -1.0213   -1.5936   -0.4463 N   0  0  0  0  0  0  0  0  0  0  0  0
   -1.3600   -0.3368   -0.3365 C   0  0  0  0  0  0  0  0  0  0  0  0
   -2.7489    0.0538   -0.0749 C   0  0  0  0  0  0  0  0  0  0  0  0
   -3.7413   -0.9110    0.1099 C   0  0  0  0  0  0  0  0  0  0  0  0
   -5.0510   -0.5312    0.3526 C   0  0  0  0  0  0  0  0  0  0  0  0
   -5.3906    0.8152    0.4150 C   0  0  0  0  0  0  0  0  0  0  0  0
   -4.4098    1.7799    0.2327 C   0  0  0  0  0  0  0  0  0  0  0  0
   -3.0972    1.4017   -0.0107 C   0  0  0  0  0  0  0  0  0  0  0  0
    2.9221   -0.9335    1.3682 C   0  0  0  0  0  0  0  0  0  0  0  0
    2.9914    0.1850    0.3245 C   0  0  1  0  0  0  0  0  0  0  0  0
    4.4334    0.5176    0.0142 C   0  0  0  0  0  0  0  0  0  0  0  0
    4.9864    0.2927   -1.0335 O   0  0  0  0  0  0  0  0  0  0  0  0
    5.0417    1.0861    1.0479 O   0  0  0  0  0  0  0  0  0  0  0  0
    2.6655   -1.0773   -1.4092 H   0  0  0  0  0  0  0  0  0  0  0  0
    2.3670    0.6294   -1.6958 H   0  0  0  0  0  0  0  0  0  0  0  0
    2.5376    1.0834    0.7552 H   0  0  0  0  0  0  0  0  0  0  0  0
   -0.1726    1.5768   -0.4870 H   0  0  0  0  0  0  0  0  0  0  0  0
   -3.4900   -1.9625    0.0632 H   0  0  0  0  0  0  0  0  0  0  0  0
   -2.3461    2.1683   -0.1509 H   0  0  0  0  0  0  0  0  0  0  0  0
   -5.8098   -1.2895    0.4936 H   0  0  0  0  0  0  0  0  0  0  0  0
   -6.4144    1.1091    0.6058 H   0  0  0  0  0  0  0  0  0  0  0  0
   -4.6638    2.8306    0.2805 H   0  0  0  0  0  0  0  0  0  0  0  0
    3.3635   -1.8559    0.9887 H   0  0  0  0  0  0  0  0  0  0  0  0
    3.4393   -0.6561    2.2848 H   0  0  0  0  0  0  0  0  0  0  0  0
    1.8867   -1.1414    1.6353 H   0  0  0  0  0  0  0  0  0  0  0  0
    5.9677    1.2701    0.8289 H   0  0  0  0  0  0  0  0  0  0  0  0
  1  2  1  0
  1 14  1  0
  2  3  2  0
  2  4  1  0
  3  6  1  0
  4  5  1  0
  5  6  2  0
  6  7  1  0
  7  8  2  0
  7 12  1  0
  8  9  1  0
  9 10  2  0
 10 11  1  0
 11 12  2  0
 13 14  1  0
 14 15  1  0
 15 16  2  0
 15 17  1  0
  1 18  1  0
  1 19  1  0
 14 20  1  1
  3 21  1  0
  8 22  1  0
 12 23  1  0
  9 24  1  0
 10 25  1  0
 11 26  1  0
 13 27  1  0
 13 28  1  0
 13 29  1  0
 17 30  1  0
M  END
