
     RDKit          3D

 47 48  0  0  0  0  0  0  0  0999 V2000
   -7.4998    0.7544    0.1270 F   0  0  0  0  0  0  0  0  0  0  0  0
   -6.8077   -0.1992   -0.5215 C   0  0  1  0  0  0  0  0  0  0  0  0
   -7.1391   -1.3624    0.0543 F   0  0  0  0  0  0  0  0  0  0  0  0
   -7.2888   -0.2291   -1.7713 F   0  0  0  0  0  0  0  0  0  0  0  0
   -5.3390    0.0536   -0.4856 C   0  0  0  0  0  0  0  0  0  0  0  0
   -4.7300    0.8228   -1.4721 C   0  0  0  0  0  0  0  0  0  0  0  0
   -3.3787    1.0921   -1.4077 C   0  0  0  0  0  0  0  0  0  0  0  0
   -4.5650   -0.4262    0.5627 C   0  0  0  0  0  0  0  0  0  0  0  0
   -3.2075   -0.1611    0.6366 C   0  0  0  0  0  0  0  0  0  0  0  0
   -2.5910    0.6072   -0.3558 C   0  0  0  0  0  0  0  0  0  0  0  0
   -1.2464    0.9374   -0.3874 N   0  0  0  0  0  0  0  0  0  0  0  0
   -0.2376    0.5324    0.4597 C   0  0  0  0  0  0  0  0  0  0  0  0
   -0.4209   -0.1899    1.4273 O   0  0  0  0  0  0  0  0  0  0  0  0
    0.9738    1.0365    0.1245 N   0  0  0  0  0  0  0  0  0  0  0  0
    2.1975    0.6102    0.7701 C   0  0  2  0  0  0  0  0  0  0  0  0
    3.2303    1.7314    0.7181 C   0  0  0  0  0  0  0  0  0  0  0  0
    4.5534    1.2745    1.3215 C   0  0  0  0  0  0  0  0  0  0  0  0
    5.0335    0.0732    0.6597 N   0  0  0  0  0  0  0  0  0  0  0  0
    4.1004   -1.0336    0.7773 C   0  0  0  0  0  0  0  0  0  0  0  0
    2.7604   -0.6682    0.1484 C   0  0  0  0  0  0  0  0  0  0  0  0
    6.1062    0.1251   -0.1650 C   0  0  0  0  0  0  0  0  0  0  0  0
    6.7599    1.1525   -0.3030 O   0  0  0  0  0  0  0  0  0  0  0  0
    6.5264   -1.1541   -0.8781 C   0  0  1  0  0  0  0  0  0  0  0  0
    7.3830   -0.8441   -2.0986 C   0  0  0  0  0  0  0  0  0  0  0  0
    7.2881   -2.0565    0.0983 C   0  0  0  0  0  0  0  0  0  0  0  0
   -5.2959    1.2194   -2.3044 H   0  0  0  0  0  0  0  0  0  0  0  0
   -2.9217    1.6856   -2.1905 H   0  0  0  0  0  0  0  0  0  0  0  0
   -5.0086   -1.0222    1.3496 H   0  0  0  0  0  0  0  0  0  0  0  0
   -2.6437   -0.5550    1.4647 H   0  0  0  0  0  0  0  0  0  0  0  0
   -0.9813    1.5274   -1.1617 H   0  0  0  0  0  0  0  0  0  0  0  0
    1.0779    1.5100   -0.7603 H   0  0  0  0  0  0  0  0  0  0  0  0
    1.9654    0.4115    1.8194 H   0  0  0  0  0  0  0  0  0  0  0  0
    3.3982    2.0404   -0.3190 H   0  0  0  0  0  0  0  0  0  0  0  0
    2.8640    2.6044    1.2626 H   0  0  0  0  0  0  0  0  0  0  0  0
    5.3012    2.0577    1.2454 H   0  0  0  0  0  0  0  0  0  0  0  0
    4.4200    1.0535    2.3854 H   0  0  0  0  0  0  0  0  0  0  0  0
    4.4978   -1.9370    0.3255 H   0  0  0  0  0  0  0  0  0  0  0  0
    3.9634   -1.2555    1.8404 H   0  0  0  0  0  0  0  0  0  0  0  0
    2.0566   -1.4923    0.2836 H   0  0  0  0  0  0  0  0  0  0  0  0
    2.8945   -0.5234   -0.9284 H   0  0  0  0  0  0  0  0  0  0  0  0
    5.6409   -1.6897   -1.2288 H   0  0  0  0  0  0  0  0  0  0  0  0
    8.3092   -0.3407   -1.8233 H   0  0  0  0  0  0  0  0  0  0  0  0
    7.6469   -1.7748   -2.6027 H   0  0  0  0  0  0  0  0  0  0  0  0
    6.8567   -0.2157   -2.8172 H   0  0  0  0  0  0  0  0  0  0  0  0
    6.6961   -2.3319    0.9717 H   0  0  0  0  0  0  0  0  0  0  0  0
    7.5881   -2.9777   -0.4017 H   0  0  0  0  0  0  0  0  0  0  0  0
    8.1926   -1.5584    0.4508 H   0  0  0  0  0  0  0  0  0  0  0  0
  2  3  1  1
  4  2  1  0
  2  1  1  0
  2  5  1  0
  6  5  2  0
  6  7  1  0
  5  8  1  0
  7 10  2  0
  8  9  2  0
  9 10  1  0
 10 11  1  0
 11 12  1  0
 12 13  2  0
 12 14  1  0
 14 15  1  0
 15 16  1  0
 15 20  1  0
 16 17  1  0
 20 19  1  0
 24 23  1  0
 17 18  1  0
 19 18  1  0
 18 21  1  0
 23 21  1  0
 23 25  1  0
 21 22  2  0
  6 26  1  0
  7 27  1  0
  8 28  1  0
  9 29  1  0
 11 30  1  0
 14 31  1  0
 15 32  1  1
 16 33  1  0
 16 34  1  0
 17 35  1  0
 17 36  1  0
 19 37  1  0
 19 38  1  0
 20 39  1  0
 20 40  1  0
 23 41  1  6
 24 42  1  0
 24 43  1  0
 24 44  1  0
 25 45  1  0
 25 46  1  0
 25 47  1  0
M  END
