
     RDKit          3D

 24 24  0  0  0  0  0  0  0  0999 V2000
    0.2429    1.7132    0.9686 C   0  0  0  0  0  0  0  0  0  0  0  0
    0.4491    1.0343   -0.3838 C   0  0  1  0  0  0  0  0  0  0  0  0
    1.9325    0.8046   -0.6846 C   0  0  0  0  0  0  0  0  0  0  0  0
    2.5527   -0.2813    0.1893 C   0  0  0  0  0  0  0  0  0  0  0  0
    1.7772   -1.5872    0.0604 C   0  0  0  0  0  0  0  0  0  0  0  0
    0.2974   -1.3958    0.3801 C   0  0  0  0  0  0  0  0  0  0  0  0
   -0.3040   -0.3109   -0.5124 C   0  0  1  0  0  0  0  0  0  0  0  0
   -1.7852   -0.0748   -0.3423 C   0  0  0  0  0  0  0  0  0  0  0  0
   -2.4448    0.5846   -1.1115 O   0  0  0  0  0  0  0  0  0  0  0  0
   -2.3056   -0.6381    0.7406 O   0  0  0  0  0  0  0  0  0  0  0  0
    0.7916    2.6558    0.9957 H   0  0  0  0  0  0  0  0  0  0  0  0
   -0.8060    1.9500    1.1560 H   0  0  0  0  0  0  0  0  0  0  0  0
    0.5986    1.1095    1.8039 H   0  0  0  0  0  0  0  0  0  0  0  0
    0.0526    1.7049   -1.1515 H   0  0  0  0  0  0  0  0  0  0  0  0
    2.0395    0.5151   -1.7358 H   0  0  0  0  0  0  0  0  0  0  0  0
    2.4763    1.7457   -0.5668 H   0  0  0  0  0  0  0  0  0  0  0  0
    3.5964   -0.4326   -0.0962 H   0  0  0  0  0  0  0  0  0  0  0  0
    2.5651    0.0378    1.2360 H   0  0  0  0  0  0  0  0  0  0  0  0
    1.8783   -1.9642   -0.9634 H   0  0  0  0  0  0  0  0  0  0  0  0
    2.2011   -2.3518    0.7153 H   0  0  0  0  0  0  0  0  0  0  0  0
   -0.2348   -2.3380    0.2318 H   0  0  0  0  0  0  0  0  0  0  0  0
    0.1828   -1.1373    1.4360 H   0  0  0  0  0  0  0  0  0  0  0  0
   -0.1853   -0.6316   -1.5551 H   0  0  0  0  0  0  0  0  0  0  0  0
   -3.2513   -0.4325    0.7945 H   0  0  0  0  0  0  0  0  0  0  0  0
  1  2  1  0
  2  3  1  0
  2  7  1  0
  3  4  1  0
  7  6  1  0
  7  8  1  0
  4  5  1  0
  6  5  1  0
  8  9  2  0
  8 10  1  0
  1 11  1  0
  1 12  1  0
  1 13  1  0
  2 14  1  6
  3 15  1  0
  3 16  1  0
  4 17  1  0
  4 18  1  0
  5 19  1  0
  5 20  1  0
  6 21  1  0
  6 22  1  0
  7 23  1  6
 10 24  1  0
M  END
