
     RDKit          3D

 85 90  0  0  0  0  0  0  0  0999 V2000
    6.5777    3.4614   -2.5526 C   0  0  0  0  0  0  0  0  0  0  0  0
    5.6544    2.4835   -2.9958 O   0  0  0  0  0  0  0  0  0  0  0  0
    4.5207    2.3074   -2.3080 C   0  0  0  0  0  0  0  0  0  0  0  0
    3.6733    1.2925   -2.7658 C   0  0  0  0  0  0  0  0  0  0  0  0
    2.5002    1.0153   -2.0981 C   0  0  0  0  0  0  0  0  0  0  0  0
    4.1511    3.0674   -1.1990 C   0  0  0  0  0  0  0  0  0  0  0  0
    2.9706    2.7838   -0.5335 C   0  0  0  0  0  0  0  0  0  0  0  0
    2.1531    1.7533   -0.9712 C   0  0  0  0  0  0  0  0  0  0  0  0
    0.7348    1.2832   -0.0371 S   0  0  1  0  0  0  0  0  0  0  0  0
    0.3428    2.4306    0.7671 O   0  0  0  0  0  0  0  0  0  0  0  0
   -0.2215    0.6735   -0.9453 O   0  0  0  0  0  0  0  0  0  0  0  0
    1.2253    0.1061    1.0066 N   0  0  0  0  0  0  0  0  0  0  0  0
    2.1076    0.4681    2.0985 C   0  0  0  0  0  0  0  0  0  0  0  0
    3.5666    0.6108    1.7074 C   0  0  0  0  0  0  0  0  0  0  0  0
    4.2624    1.6523    2.2874 C   0  0  0  0  0  0  0  0  0  0  0  0
    5.5753    1.9573    1.9288 C   0  0  0  0  0  0  0  0  0  0  0  0
    6.2503    3.0518    2.5322 C   0  0  0  0  0  0  0  0  0  0  0  0
    6.8005    3.9418    3.0195 N   0  0  0  0  0  0  0  0  0  0  0  0
    6.1946    1.1963    0.9419 C   0  0  0  0  0  0  0  0  0  0  0  0
    5.5231    0.1450    0.3598 C   0  0  0  0  0  0  0  0  0  0  0  0
    4.2078   -0.1957    0.7301 C   0  0  0  0  0  0  0  0  0  0  0  0
    3.5760   -1.2597    0.1393 N   0  0  0  0  0  0  0  0  0  0  0  0
    4.2339   -1.9198   -0.9879 C   0  0  0  0  0  0  0  0  0  0  0  0
    3.3824   -2.9153   -1.6929 C   0  0  0  0  0  0  0  0  0  0  0  0
    2.4361   -2.7713   -2.6725 C   0  0  0  0  0  0  0  0  0  0  0  0
    1.9234   -3.9803   -3.0299 N   0  0  0  0  0  0  0  0  0  0  0  0
    2.5499   -4.8530   -2.2817 C   0  0  0  0  0  0  0  0  0  0  0  0
    3.4406   -4.2679   -1.4570 N   0  0  0  0  0  0  0  0  0  0  0  0
    4.3077   -4.9504   -0.5221 C   0  0  0  0  0  0  0  0  0  0  0  0
    2.5283   -1.9500    0.8608 C   0  0  0  0  0  0  0  0  0  0  0  0
    1.1600   -1.3087    0.6574 C   0  0  1  0  0  0  0  0  0  0  0  0
    0.0979   -2.0317    1.4951 C   0  0  0  0  0  0  0  0  0  0  0  0
   -1.2835   -1.5041    1.2526 C   0  0  0  0  0  0  0  0  0  0  0  0
   -1.7829   -0.4387    1.9945 C   0  0  0  0  0  0  0  0  0  0  0  0
   -3.0478    0.0750    1.7474 C   0  0  0  0  0  0  0  0  0  0  0  0
   -2.0788   -2.0407    0.2442 C   0  0  0  0  0  0  0  0  0  0  0  0
   -3.3444   -1.5389   -0.0157 C   0  0  0  0  0  0  0  0  0  0  0  0
   -3.8184   -0.4810    0.7418 C   0  0  0  0  0  0  0  0  0  0  0  0
   -5.0633    0.0532    0.4729 O   0  0  0  0  0  0  0  0  0  0  0  0
   -6.1297   -0.5507    1.0505 C   0  0  0  0  0  0  0  0  0  0  0  0
   -6.0385   -1.5322    1.7520 O   0  0  0  0  0  0  0  0  0  0  0  0
   -7.2632    0.0801    0.7166 N   0  0  0  0  0  0  0  0  0  0  0  0
   -8.5461   -0.3049    1.2691 C   0  0  0  0  0  0  0  0  0  0  0  0
   -9.6642    0.1646    0.3783 C   0  0  0  0  0  0  0  0  0  0  0  0
   -9.7906   -0.3378   -0.9160 C   0  0  0  0  0  0  0  0  0  0  0  0
  -10.8211    0.0894   -1.7393 C   0  0  0  0  0  0  0  0  0  0  0  0
  -11.7398    1.0266   -1.2790 C   0  0  0  0  0  0  0  0  0  0  0  0
  -11.6203    1.5323    0.0071 C   0  0  0  0  0  0  0  0  0  0  0  0
  -10.5842    1.1039    0.8292 C   0  0  0  0  0  0  0  0  0  0  0  0
    6.1572    4.4687   -2.5970 H   0  0  0  0  0  0  0  0  0  0  0  0
    6.9202    3.2633   -1.5338 H   0  0  0  0  0  0  0  0  0  0  0  0
    7.4291    3.4070   -3.2255 H   0  0  0  0  0  0  0  0  0  0  0  0
    3.9471    0.7270   -3.6475 H   0  0  0  0  0  0  0  0  0  0  0  0
    1.8537    0.2300   -2.4643 H   0  0  0  0  0  0  0  0  0  0  0  0
    4.7705    3.8725   -0.8298 H   0  0  0  0  0  0  0  0  0  0  0  0
    2.7016    3.3769    0.3294 H   0  0  0  0  0  0  0  0  0  0  0  0
    1.7688    1.4052    2.5375 H   0  0  0  0  0  0  0  0  0  0  0  0
    1.9738   -0.2748    2.8872 H   0  0  0  0  0  0  0  0  0  0  0  0
    3.7578    2.2756    3.0161 H   0  0  0  0  0  0  0  0  0  0  0  0
    7.2086    1.4157    0.6349 H   0  0  0  0  0  0  0  0  0  0  0  0
    6.0524   -0.4317   -0.3829 H   0  0  0  0  0  0  0  0  0  0  0  0
    4.5144   -1.1507   -1.7097 H   0  0  0  0  0  0  0  0  0  0  0  0
    5.1670   -2.4009   -0.6699 H   0  0  0  0  0  0  0  0  0  0  0  0
    2.1098   -1.8569   -3.1452 H   0  0  0  0  0  0  0  0  0  0  0  0
    2.4036   -5.9228   -2.2956 H   0  0  0  0  0  0  0  0  0  0  0  0
    5.3533   -4.7521   -0.7482 H   0  0  0  0  0  0  0  0  0  0  0  0
    4.1034   -4.6387    0.5010 H   0  0  0  0  0  0  0  0  0  0  0  0
    4.1320   -6.0197   -0.5969 H   0  0  0  0  0  0  0  0  0  0  0  0
    2.4597   -2.9812    0.5223 H   0  0  0  0  0  0  0  0  0  0  0  0
    2.7797   -2.0160    1.9233 H   0  0  0  0  0  0  0  0  0  0  0  0
    0.9011   -1.4032   -0.3986 H   0  0  0  0  0  0  0  0  0  0  0  0
    0.1413   -3.0964    1.2510 H   0  0  0  0  0  0  0  0  0  0  0  0
    0.3559   -1.9460    2.5549 H   0  0  0  0  0  0  0  0  0  0  0  0
   -1.1848   -0.0091    2.7881 H   0  0  0  0  0  0  0  0  0  0  0  0
   -3.4312    0.9003    2.3343 H   0  0  0  0  0  0  0  0  0  0  0  0
   -1.7091   -2.8709   -0.3461 H   0  0  0  0  0  0  0  0  0  0  0  0
   -3.9555   -1.9678   -0.7998 H   0  0  0  0  0  0  0  0  0  0  0  0
   -7.2031    0.9609    0.2290 H   0  0  0  0  0  0  0  0  0  0  0  0
   -8.5732   -1.3921    1.3528 H   0  0  0  0  0  0  0  0  0  0  0  0
   -8.6781    0.0971    2.2776 H   0  0  0  0  0  0  0  0  0  0  0  0
   -9.0810   -1.0713   -1.2811 H   0  0  0  0  0  0  0  0  0  0  0  0
  -10.9111   -0.3103   -2.7411 H   0  0  0  0  0  0  0  0  0  0  0  0
  -12.5437    1.3604   -1.9223 H   0  0  0  0  0  0  0  0  0  0  0  0
  -12.3303    2.2627    0.3731 H   0  0  0  0  0  0  0  0  0  0  0  0
  -10.4923    1.5045    1.8318 H   0  0  0  0  0  0  0  0  0  0  0  0
 26 27  2  0
 26 25  1  0
 27 28  1  0
 18 17  3  0
 25 24  2  0
 17 16  1  0
 19 16  2  0
 19 20  1  0
 28 29  1  0
 28 24  1  0
 16 15  1  0
 20 21  2  0
 24 23  1  0
 15 14  2  0
 21 14  1  0
 21 22  1  0
 23 22  1  0
 14 13  1  0
 22 30  1  0
 30 31  1  0
  2  1  1  0
  2  3  1  0
 13 12  1  0
  3  4  2  0
  3  6  1  0
  4  5  1  0
 32 31  1  0
 32 33  1  0
 31 12  1  0
  6  7  2  0
 12  9  1  0
  5  8  2  0
 34 33  2  0
 34 35  1  0
  7  8  1  0
  9  8  1  6
 33 36  1  0
 35 38  2  0
  9 11  2  0
  9 10  2  0
 36 37  2  0
 38 37  1  0
 38 39  1  0
 39 40  1  0
 42 40  1  0
 42 43  1  0
 40 41  2  0
 49 48  2  0
 49 44  1  0
 43 44  1  0
 48 47  1  0
 44 45  2  0
 47 46  2  0
 45 46  1  0
  1 50  1  0
  1 51  1  0
  1 52  1  0
  4 53  1  0
  5 54  1  0
  6 55  1  0
  7 56  1  0
 13 57  1  0
 13 58  1  0
 15 59  1  0
 19 60  1  0
 20 61  1  0
 23 62  1  0
 23 63  1  0
 25 64  1  0
 27 65  1  0
 29 66  1  0
 29 67  1  0
 29 68  1  0
 30 69  1  0
 30 70  1  0
 31 71  1  6
 32 72  1  0
 32 73  1  0
 34 74  1  0
 35 75  1  0
 36 76  1  0
 37 77  1  0
 42 78  1  0
 43 79  1  0
 43 80  1  0
 45 81  1  0
 46 82  1  0
 47 83  1  0
 48 84  1  0
 49 85  1  0
M  END
