
     RDKit          3D

 48 50  0  0  0  0  0  0  0  0999 V2000
   -4.3672    0.7251   -1.9432 N   0  0  0  0  0  0  0  0  0  0  0  0
   -5.5448    0.6032   -1.3310 C   0  0  0  0  0  0  0  0  0  0  0  0
   -5.7405    0.3798   -0.0265 N   0  0  0  0  0  0  0  0  0  0  0  0
   -4.6570    0.2684    0.7309 C   0  0  0  0  0  0  0  0  0  0  0  0
   -3.3705    0.3769    0.2072 C   0  0  0  0  0  0  0  0  0  0  0  0
   -3.2814    0.6143   -1.1900 C   0  0  0  0  0  0  0  0  0  0  0  0
   -4.8140   -1.5343    2.4509 C   0  0  0  0  0  0  0  0  0  0  0  0
    1.0751    3.4745   -1.6335 C   0  0  0  0  0  0  0  0  0  0  0  0
   -6.6428    0.6898   -2.1019 N   0  0  0  0  0  0  0  0  0  0  0  0
   -2.0874    0.7622   -1.7884 N   0  0  0  0  0  0  0  0  0  0  0  0
   -1.1318    0.1956    1.5583 C   0  0  0  0  0  0  0  0  0  0  0  0
   -2.1903    0.2709    0.9827 C   0  0  0  0  0  0  0  0  0  0  0  0
    6.4385   -2.2183   -0.8063 C   0  0  0  0  0  0  0  0  0  0  0  0
    6.3101   -2.3573    1.4519 C   0  0  0  0  0  0  0  0  0  0  0  0
    5.3100   -1.4178   -0.8760 C   0  0  0  0  0  0  0  0  0  0  0  0
    5.1752   -1.5635    1.4911 C   0  0  0  0  0  0  0  0  0  0  0  0
    1.1862    1.4183    0.2660 C   0  0  0  0  0  0  0  0  0  0  0  0
    2.4171   -0.4238    1.2054 C   0  0  0  0  0  0  0  0  0  0  0  0
    3.3372    0.8161   -0.6406 C   0  0  0  0  0  0  0  0  0  0  0  0
   -4.8716   -0.0299    2.1836 C   0  0  0  0  0  0  0  0  0  0  0  0
    0.1794    0.1466    2.1913 C   0  0  0  0  0  0  0  0  0  0  0  0
    6.9414   -2.6861    0.3306 N   0  0  0  0  0  0  0  0  0  0  0  0
    2.1890    2.6044   -1.5839 O   0  0  0  0  0  0  0  0  0  0  0  0
    1.2924    0.3817    1.1924 C   0  0  0  0  0  0  0  0  0  0  0  0
    2.2062    1.6343   -0.6533 C   0  0  0  0  0  0  0  0  0  0  0  0
    4.6487   -1.0683    0.2998 C   0  0  0  0  0  0  0  0  0  0  0  0
    3.4490   -0.2089    0.2866 C   0  0  0  0  0  0  0  0  0  0  0  0
   -3.8323   -1.9419    2.2082 H   0  0  0  0  0  0  0  0  0  0  0  0
   -5.0126   -1.7433    3.5018 H   0  0  0  0  0  0  0  0  0  0  0  0
   -5.5579   -2.0653    1.8566 H   0  0  0  0  0  0  0  0  0  0  0  0
    1.2630    4.1707   -2.4467 H   0  0  0  0  0  0  0  0  0  0  0  0
    0.1443    2.9382   -1.8398 H   0  0  0  0  0  0  0  0  0  0  0  0
    0.9579    4.0389   -0.7050 H   0  0  0  0  0  0  0  0  0  0  0  0
   -6.5586    1.0004   -3.0537 H   0  0  0  0  0  0  0  0  0  0  0  0
   -7.5470    0.7466   -1.6676 H   0  0  0  0  0  0  0  0  0  0  0  0
   -1.2478    0.4902   -1.3055 H   0  0  0  0  0  0  0  0  0  0  0  0
   -2.0511    0.7668   -2.7938 H   0  0  0  0  0  0  0  0  0  0  0  0
    6.9576   -2.4949   -1.7173 H   0  0  0  0  0  0  0  0  0  0  0  0
    6.7307   -2.7385    2.3758 H   0  0  0  0  0  0  0  0  0  0  0  0
    4.9474   -1.0921   -1.8419 H   0  0  0  0  0  0  0  0  0  0  0  0
    4.7270   -1.3237    2.4461 H   0  0  0  0  0  0  0  0  0  0  0  0
    0.3033    2.0446    0.2814 H   0  0  0  0  0  0  0  0  0  0  0  0
    2.4825   -1.2411    1.9127 H   0  0  0  0  0  0  0  0  0  0  0  0
    4.1305    1.0081   -1.3529 H   0  0  0  0  0  0  0  0  0  0  0  0
   -4.1161    0.4778    2.7859 H   0  0  0  0  0  0  0  0  0  0  0  0
   -5.8459    0.3611    2.4790 H   0  0  0  0  0  0  0  0  0  0  0  0
    0.2323    0.9019    2.9824 H   0  0  0  0  0  0  0  0  0  0  0  0
    0.3246   -0.8180    2.6833 H   0  0  0  0  0  0  0  0  0  0  0  0
  2  1  2  0
  6  1  1  0
  3  2  1  0
  2  9  1  0
  4  3  2  0
 20  4  1  0
  4  5  1  0
 12  5  1  0
  5  6  2  0
  6 10  1  0
  7 20  1  0
  7 28  1  0
  7 29  1  0
  7 30  1  0
 23  8  1  0
  8 31  1  0
  8 32  1  0
  8 33  1  0
  9 34  1  0
  9 35  1  0
 10 36  1  0
 10 37  1  0
 21 11  1  0
 11 12  3  0
 13 15  2  0
 13 22  1  0
 13 38  1  0
 22 14  2  0
 14 16  1  0
 14 39  1  0
 15 26  1  0
 15 40  1  0
 26 16  2  0
 16 41  1  0
 25 17  2  0
 17 24  1  0
 17 42  1  0
 27 18  1  0
 18 24  2  0
 18 43  1  0
 19 25  1  0
 19 27  2  0
 19 44  1  0
 20 45  1  0
 20 46  1  0
 24 21  1  0
 21 47  1  0
 21 48  1  0
 23 25  1  0
 26 27  1  0
M  END
