
     RDKit          3D

 25 25  0  0  0  0  0  0  0  0999 V2000
   -4.4218   -0.6297   -0.1922 Cl  0  0  0  0  0  0  0  0  0  0  0  0
   -2.7839   -0.1096    0.0245 C   0  0  0  0  0  0  0  0  0  0  0  0
   -2.1355   -0.3734    1.2206 C   0  0  0  0  0  0  0  0  0  0  0  0
   -0.8213    0.0334    1.3814 C   0  0  0  0  0  0  0  0  0  0  0  0
   -2.1428    0.5737   -0.9969 C   0  0  0  0  0  0  0  0  0  0  0  0
   -0.8356    0.9975   -0.8212 C   0  0  0  0  0  0  0  0  0  0  0  0
   -0.1625    0.7167    0.3638 C   0  0  0  0  0  0  0  0  0  0  0  0
    1.1682    1.1571    0.5542 N   0  0  0  0  0  0  0  0  0  0  0  0
    2.4110    0.5019   -0.3541 S   0  0  1  0  0  0  0  0  0  0  0  0
    2.1096    0.7591   -1.7459 O   0  0  0  0  0  0  0  0  0  0  0  0
    3.6094    1.0470    0.2484 O   0  0  0  0  0  0  0  0  0  0  0  0
    2.4472   -1.1314   -0.1608 N   0  0  0  0  0  0  0  0  0  0  0  0
    1.5381   -1.9585   -0.9475 C   0  0  0  0  0  0  0  0  0  0  0  0
    2.6928   -1.6181    1.1908 C   0  0  0  0  0  0  0  0  0  0  0  0
   -2.6401   -0.8998    2.0190 H   0  0  0  0  0  0  0  0  0  0  0  0
   -2.6593    0.7932   -1.9213 H   0  0  0  0  0  0  0  0  0  0  0  0
   -0.3104   -0.1833    2.3114 H   0  0  0  0  0  0  0  0  0  0  0  0
   -0.3510    1.5573   -1.6075 H   0  0  0  0  0  0  0  0  0  0  0  0
    1.4379    1.2601    1.5267 H   0  0  0  0  0  0  0  0  0  0  0  0
    1.9594   -2.9621   -0.9847 H   0  0  0  0  0  0  0  0  0  0  0  0
    0.5380   -2.0216   -0.5126 H   0  0  0  0  0  0  0  0  0  0  0  0
    1.4617   -1.5912   -1.9659 H   0  0  0  0  0  0  0  0  0  0  0  0
    3.4843   -1.0498    1.6719 H   0  0  0  0  0  0  0  0  0  0  0  0
    1.7976   -1.5893    1.8183 H   0  0  0  0  0  0  0  0  0  0  0  0
    3.0242   -2.6524    1.1191 H   0  0  0  0  0  0  0  0  0  0  0  0
  1  2  1  0
  2  3  2  0
  2  5  1  0
  3  4  1  0
  4  7  2  0
  5  6  2  0
  6  7  1  0
  7  8  1  0
  9  8  1  1
  9 10  2  0
  9 11  2  0
  9 12  1  0
 12 13  1  0
 12 14  1  0
  3 15  1  0
  5 16  1  0
  4 17  1  0
  6 18  1  0
  8 19  1  0
 13 20  1  0
 13 21  1  0
 13 22  1  0
 14 23  1  0
 14 24  1  0
 14 25  1  0
M  END
