
     RDKit          3D

 65 65  0  0  0  0  0  0  0  0999 V2000
   -2.9201    1.3252   -3.1921 O   0  0  0  0  0  0  0  0  0  0  0  0
   -2.8587    1.3953   -1.9818 C   0  0  0  0  0  0  0  0  0  0  0  0
   -2.3023    2.6047   -1.2573 C   0  0  2  0  0  0  0  0  0  0  0  0
   -2.0733    3.7850   -2.1870 C   0  0  0  0  0  0  0  0  0  0  0  0
   -0.9956    2.1767   -0.5271 C   0  0  0  0  0  0  0  0  0  0  0  0
   -1.1909    1.8808    0.9644 C   0  0  2  0  0  0  0  0  0  0  0  0
   -1.5262    3.1703    1.7161 C   0  0  0  0  0  0  0  0  0  0  0  0
    0.0245    1.2175    1.6573 C   0  0  2  0  0  0  0  0  0  0  0  0
    0.9575    0.7243    0.6851 O   0  0  0  0  0  0  0  0  0  0  0  0
    2.2624    0.7616    0.9431 C   0  0  0  0  0  0  0  0  0  0  0  0
    2.7333    1.1786    1.9715 O   0  0  0  0  0  0  0  0  0  0  0  0
    3.0578    0.2306   -0.2170 C   0  0  0  0  0  0  0  0  0  0  0  0
    4.5196   -0.0021    0.1345 C   0  0  0  0  0  0  0  0  0  0  0  0
    5.2466   -0.6537   -0.9382 N   0  0  0  0  0  0  0  0  0  0  0  0
    5.3951    0.1942   -2.1031 C   0  0  0  0  0  0  0  0  0  0  0  0
    6.5395   -1.1067   -0.4699 C   0  0  0  0  0  0  0  0  0  0  0  0
   -0.2936    0.0615    2.6199 C   0  0  1  0  0  0  0  0  0  0  0  0
   -1.4491    0.3531    3.5818 C   0  0  0  0  0  0  0  0  0  0  0  0
   -0.5329   -1.2823    1.9545 C   0  0  0  0  0  0  0  0  0  0  0  0
   -0.0970   -2.3102    2.4143 O   0  0  0  0  0  0  0  0  0  0  0  0
   -1.3068   -1.2220    0.8841 O   0  0  0  0  0  0  0  0  0  0  0  0
   -1.7004   -2.4433    0.2250 C   0  0  2  0  0  0  0  0  0  0  0  0
   -0.5730   -2.9966   -0.6402 C   0  0  0  0  0  0  0  0  0  0  0  0
    0.0123   -2.0843   -1.7113 C   0  0  0  0  0  0  0  0  0  0  0  0
   -3.0433   -2.1399   -0.4689 C   0  0  2  0  0  0  0  0  0  0  0  0
   -3.5980   -3.3907   -1.1436 C   0  0  0  0  0  0  0  0  0  0  0  0
   -2.9477   -0.9947   -1.4271 C   0  0  0  0  0  0  0  0  0  0  0  0
   -3.2196    0.2662   -1.0991 C   0  0  0  0  0  0  0  0  0  0  0  0
   -3.0499    2.8884   -0.5081 H   0  0  0  0  0  0  0  0  0  0  0  0
   -3.5706    0.5038   -0.1011 H   0  0  0  0  0  0  0  0  0  0  0  0
   -2.9845    4.0720   -2.7119 H   0  0  0  0  0  0  0  0  0  0  0  0
   -1.7359    4.6474   -1.6112 H   0  0  0  0  0  0  0  0  0  0  0  0
   -1.3085    3.5656   -2.9331 H   0  0  0  0  0  0  0  0  0  0  0  0
   -0.5731    1.3089   -1.0354 H   0  0  0  0  0  0  0  0  0  0  0  0
   -0.2595    2.9780   -0.6421 H   0  0  0  0  0  0  0  0  0  0  0  0
   -2.0402    1.2045    1.0555 H   0  0  0  0  0  0  0  0  0  0  0  0
   -2.4382    3.6373    1.3426 H   0  0  0  0  0  0  0  0  0  0  0  0
   -1.6768    2.9965    2.7816 H   0  0  0  0  0  0  0  0  0  0  0  0
   -0.7149    3.8939    1.6107 H   0  0  0  0  0  0  0  0  0  0  0  0
    0.5276    1.9853    2.2515 H   0  0  0  0  0  0  0  0  0  0  0  0
    0.5956   -0.0868    3.2374 H   0  0  0  0  0  0  0  0  0  0  0  0
    2.6039   -0.6997   -0.5681 H   0  0  0  0  0  0  0  0  0  0  0  0
    2.9490    0.9482   -1.0360 H   0  0  0  0  0  0  0  0  0  0  0  0
    4.9925    0.9511    0.4225 H   0  0  0  0  0  0  0  0  0  0  0  0
    4.5670   -0.6525    1.0113 H   0  0  0  0  0  0  0  0  0  0  0  0
    5.9099    1.1428   -1.8817 H   0  0  0  0  0  0  0  0  0  0  0  0
    5.9727   -0.3276   -2.8668 H   0  0  0  0  0  0  0  0  0  0  0  0
    4.4263    0.4356   -2.5410 H   0  0  0  0  0  0  0  0  0  0  0  0
    6.4158   -1.7998    0.3634 H   0  0  0  0  0  0  0  0  0  0  0  0
    7.0617   -1.6343   -1.2690 H   0  0  0  0  0  0  0  0  0  0  0  0
    7.1921   -0.2867   -0.1304 H   0  0  0  0  0  0  0  0  0  0  0  0
   -2.4049    0.4582    3.0699 H   0  0  0  0  0  0  0  0  0  0  0  0
   -1.5464   -0.4548    4.3065 H   0  0  0  0  0  0  0  0  0  0  0  0
   -1.2600    1.2676    4.1430 H   0  0  0  0  0  0  0  0  0  0  0  0
   -1.9198   -3.1940    0.9902 H   0  0  0  0  0  0  0  0  0  0  0  0
    0.2283   -3.3147    0.0286 H   0  0  0  0  0  0  0  0  0  0  0  0
   -0.9370   -3.9179   -1.1018 H   0  0  0  0  0  0  0  0  0  0  0  0
   -3.7297   -1.8538    0.3352 H   0  0  0  0  0  0  0  0  0  0  0  0
    0.9446   -2.5105   -2.0826 H   0  0  0  0  0  0  0  0  0  0  0  0
   -0.6473   -1.9671   -2.5686 H   0  0  0  0  0  0  0  0  0  0  0  0
    0.2381   -1.0909   -1.3254 H   0  0  0  0  0  0  0  0  0  0  0  0
   -3.6080   -4.2390   -0.4578 H   0  0  0  0  0  0  0  0  0  0  0  0
   -4.6226   -3.2206   -1.4732 H   0  0  0  0  0  0  0  0  0  0  0  0
   -3.0150   -3.6741   -2.0209 H   0  0  0  0  0  0  0  0  0  0  0  0
   -2.5750   -1.2111   -2.4239 H   0  0  0  0  0  0  0  0  0  0  0  0
  1  2  2  0
  2  3  1  0
  2 28  1  0
  3  4  1  0
  3  5  1  0
  5  6  1  0
  6  7  1  0
  6  8  1  0
  8  9  1  0
  8 17  1  0
  9 10  1  0
 10 11  2  0
 10 12  1  0
 12 13  1  0
 13 14  1  0
 14 15  1  0
 14 16  1  0
 17 18  1  0
 17 19  1  0
 19 20  2  0
 19 21  1  0
 21 22  1  0
 22 23  1  0
 22 25  1  0
 23 24  1  0
 25 26  1  0
 25 27  1  0
 27 28  2  0
  3 29  1  1
 28 30  1  0
  4 31  1  0
  4 32  1  0
  4 33  1  0
  5 34  1  0
  5 35  1  0
  6 36  1  6
  7 37  1  0
  7 38  1  0
  7 39  1  0
  8 40  1  1
 17 41  1  1
 12 42  1  0
 12 43  1  0
 13 44  1  0
 13 45  1  0
 15 46  1  0
 15 47  1  0
 15 48  1  0
 16 49  1  0
 16 50  1  0
 16 51  1  0
 18 52  1  0
 18 53  1  0
 18 54  1  0
 22 55  1  1
 23 56  1  0
 23 57  1  0
 25 58  1  1
 24 59  1  0
 24 60  1  0
 24 61  1  0
 26 62  1  0
 26 63  1  0
 26 64  1  0
 27 65  1  0
M  END
