
     RDKit          3D

 24 25  0  0  0  0  0  0  0  0999 V2000
    2.3949    0.2361    0.3436 N   0  0  0  0  0  0  0  0  0  0  0  0
    3.4495   -1.2680   -0.6452 N   0  0  0  0  0  0  0  0  0  0  0  0
   -0.7945   -0.3962    1.3178 C   0  0  0  0  0  0  0  0  0  0  0  0
    0.0037    0.5790    0.7407 C   0  0  0  0  0  0  0  0  0  0  0  0
    1.4005    0.8227    1.2325 C   0  0  0  0  0  0  0  0  0  0  0  0
    3.2568    0.8235   -0.4840 C   0  0  0  0  0  0  0  0  0  0  0  0
   -0.5139    1.3178   -0.3229 C   0  0  0  0  0  0  0  0  0  0  0  0
   -4.6747   -1.0309   -0.1646 C   0  0  0  0  0  0  0  0  0  0  0  0
   -2.5893    0.1019   -0.2043 C   0  0  0  0  0  0  0  0  0  0  0  0
   -2.0838   -0.6410    0.8593 C   0  0  0  0  0  0  0  0  0  0  0  0
    3.9252   -0.1120   -1.1088 N   0  0  0  0  0  0  0  0  0  0  0  0
    2.5339   -1.0730    0.2213 N   0  0  0  0  0  0  0  0  0  0  0  0
   -1.7903    1.0866   -0.7944 C   0  0  0  0  0  0  0  0  0  0  0  0
   -0.4151   -0.9818    2.1466 H   0  0  0  0  0  0  0  0  0  0  0  0
    1.5537    0.4012    2.2249 H   0  0  0  0  0  0  0  0  0  0  0  0
    1.6275    1.8864    1.2902 H   0  0  0  0  0  0  0  0  0  0  0  0
    3.3695    1.8889   -0.5965 H   0  0  0  0  0  0  0  0  0  0  0  0
    0.0872    2.0895   -0.7895 H   0  0  0  0  0  0  0  0  0  0  0  0
   -5.6082   -0.9771   -0.7192 H   0  0  0  0  0  0  0  0  0  0  0  0
   -4.2625   -2.0382   -0.2663 H   0  0  0  0  0  0  0  0  0  0  0  0
   -4.8807   -0.8389    0.8914 H   0  0  0  0  0  0  0  0  0  0  0  0
   -2.6735   -1.4071    1.3429 H   0  0  0  0  0  0  0  0  0  0  0  0
   -2.1836    1.6687   -1.6185 H   0  0  0  0  0  0  0  0  0  0  0  0
   -3.8200   -0.0515   -0.7224 O   0  0  0  0  0  0  0  0  0  0  0  0
  8 24  1  0
 24  9  1  0
 10  9  1  0
 10  3  2  0
  9 13  2  0
  2 11  1  0
  2 12  2  0
  3  4  1  0
 11  6  2  0
 12  1  1  0
 13  7  1  0
  6  1  1  0
  4  7  2  0
  4  5  1  0
  1  5  1  0
  3 14  1  0
  5 15  1  0
  5 16  1  0
  6 17  1  0
  7 18  1  0
  8 19  1  0
  8 20  1  0
  8 21  1  0
 10 22  1  0
 13 23  1  0
M  END
