
     RDKit          3D

 64 66  0  0  0  0  0  0  0  0999 V2000
    8.4083   -2.0796    4.2700 N   0  0  0  0  0  0  0  0  0  0  0  0
    7.6166   -3.1347    4.1964 C   0  0  0  0  0  0  0  0  0  0  0  0
    6.2525   -3.0788    3.9433 C   0  0  0  0  0  0  0  0  0  0  0  0
    5.7077   -1.8014    3.7848 C   0  0  0  0  0  0  0  0  0  0  0  0
    6.5027   -0.6841    3.8894 C   0  0  0  0  0  0  0  0  0  0  0  0
    7.8803   -0.8594    4.1139 C   0  0  0  0  0  0  0  0  0  0  0  0
    8.5630    1.5351    3.8226 C   0  0  0  0  0  0  0  0  0  0  0  0
    8.7651    0.1616    4.2139 N   0  0  0  0  0  0  0  0  0  0  0  0
    8.2275    0.5224    1.0796 C   0  0  0  0  0  0  0  0  0  0  0  0
    7.0085    1.1553    0.8595 C   0  0  0  0  0  0  0  0  0  0  0  0
    5.8729    0.4422    0.5196 C   0  0  0  0  0  0  0  0  0  0  0  0
    5.9313   -0.9398    0.3863 C   0  0  0  0  0  0  0  0  0  0  0  0
    7.1412   -1.5828    0.6098 C   0  0  0  0  0  0  0  0  0  0  0  0
    8.2889   -0.8720    0.9482 C   0  0  0  0  0  0  0  0  0  0  0  0
    9.5564   -1.6000    1.2264 C   0  0  0  0  0  0  0  0  0  0  0  0
   10.5346   -1.1007    1.7225 O   0  0  0  0  0  0  0  0  0  0  0  0
    9.5010   -2.8767    0.8661 O   0  0  0  0  0  0  0  0  0  0  0  0
    4.7332   -1.7793    0.0822 C   0  0  0  0  0  0  0  0  0  0  0  0
    3.7043   -1.1764   -0.5212 N   0  0  0  0  0  0  0  0  0  0  0  0
    4.7132   -2.9707    0.3829 O   0  0  0  0  0  0  0  0  0  0  0  0
    2.4460   -1.8471   -0.7776 C   0  0  0  0  0  0  0  0  0  0  0  0
    1.5368   -1.9478    0.4496 C   0  0  1  0  0  0  0  0  0  0  0  0
    1.1955   -0.5721    1.0089 C   0  0  0  0  0  0  0  0  0  0  0  0
    0.2749   -2.7179    0.0782 C   0  0  0  0  0  0  0  0  0  0  0  0
    5.4520   -4.3215    3.8881 C   0  0  0  0  0  0  0  0  0  0  0  0
    4.3456   -4.2585    3.0838 N   0  0  0  0  0  0  0  0  0  0  0  0
    5.8107   -5.3184    4.6065 N   0  0  0  0  0  0  0  0  0  0  0  0
   11.3050    2.6617    0.7204 C   0  0  0  0  0  0  0  0  0  0  0  0
   11.4534    3.2039    1.9952 C   0  0  0  0  0  0  0  0  0  0  0  0
   10.5343    2.8230    2.9767 C   0  0  0  0  0  0  0  0  0  0  0  0
    9.5035    1.9367    2.7106 C   0  0  0  0  0  0  0  0  0  0  0  0
    9.3780    1.3954    1.4249 C   0  0  0  0  0  0  0  0  0  0  0  0
   10.2795    1.7719    0.4403 C   0  0  0  0  0  0  0  0  0  0  0  0
   12.8467    4.7335    3.4068 C   0  0  0  0  0  0  0  0  0  0  0  0
    3.8514   -5.1268    2.9435 H   0  0  0  0  0  0  0  0  0  0  0  0
    4.4330   -3.7189    2.2311 H   0  0  0  0  0  0  0  0  0  0  0  0
    5.2126   -6.1226    4.4347 H   0  0  0  0  0  0  0  0  0  0  0  0
    8.0935   -4.0988    4.3364 H   0  0  0  0  0  0  0  0  0  0  0  0
    6.0654    0.2988    3.7940 H   0  0  0  0  0  0  0  0  0  0  0  0
    4.6465   -1.6748    3.6090 H   0  0  0  0  0  0  0  0  0  0  0  0
    9.7235   -0.1330    4.3197 H   0  0  0  0  0  0  0  0  0  0  0  0
    8.7174    2.1980    4.6778 H   0  0  0  0  0  0  0  0  0  0  0  0
    7.5282    1.6753    3.5134 H   0  0  0  0  0  0  0  0  0  0  0  0
   10.6173    3.2258    3.9799 H   0  0  0  0  0  0  0  0  0  0  0  0
   13.1807    4.3532    1.3906 H   0  0  0  0  0  0  0  0  0  0  0  0
   13.6881    5.4083    3.4813 H   0  0  0  0  0  0  0  0  0  0  0  0
   12.2759    4.5767    4.3133 H   0  0  0  0  0  0  0  0  0  0  0  0
   11.9975    2.9405   -0.0652 H   0  0  0  0  0  0  0  0  0  0  0  0
   10.1787    1.3707   -0.5605 H   0  0  0  0  0  0  0  0  0  0  0  0
    6.9462    2.2313    0.9616 H   0  0  0  0  0  0  0  0  0  0  0  0
    4.9475    0.9883    0.3878 H   0  0  0  0  0  0  0  0  0  0  0  0
    7.1737   -2.6599    0.5349 H   0  0  0  0  0  0  0  0  0  0  0  0
   10.3313   -3.3159    1.1014 H   0  0  0  0  0  0  0  0  0  0  0  0
    3.7977   -0.2244   -0.8326 H   0  0  0  0  0  0  0  0  0  0  0  0
    2.6455   -2.8433   -1.1770 H   0  0  0  0  0  0  0  0  0  0  0  0
    1.9383   -1.2838   -1.5624 H   0  0  0  0  0  0  0  0  0  0  0  0
    2.0695   -2.5153    1.2198 H   0  0  0  0  0  0  0  0  0  0  0  0
    0.6786    0.0371    0.2630 H   0  0  0  0  0  0  0  0  0  0  0  0
    0.5410   -0.6567    1.8777 H   0  0  0  0  0  0  0  0  0  0  0  0
    2.0856   -0.0276    1.3270 H   0  0  0  0  0  0  0  0  0  0  0  0
   -0.2892   -2.1962   -0.6993 H   0  0  0  0  0  0  0  0  0  0  0  0
   -0.3819   -2.8308    0.9416 H   0  0  0  0  0  0  0  0  0  0  0  0
    0.5069   -3.7175   -0.2935 H   0  0  0  0  0  0  0  0  0  0  0  0
   12.5530    4.1400    2.2507 C   0  0  0  0  0  0  0  0  0  0  0  0
  1  2  2  0
  1  6  1  0
  2  3  1  0
  2 38  1  0
  3 25  1  0
  3  4  2  0
  4  5  1  0
  4 40  1  0
  5  6  2  0
  5 39  1  0
  6  8  1  0
  7  8  1  0
  7 42  1  0
  7 43  1  0
  7 31  1  0
  8 41  1  0
  9 32  1  0
  9 10  2  0
  9 14  1  0
 10 50  1  0
 10 11  1  0
 11 51  1  0
 11 12  2  0
 12 13  1  0
 12 18  1  0
 13 52  1  0
 13 14  2  0
 14 15  1  0
 15 16  2  0
 15 17  1  0
 17 53  1  0
 18 20  2  0
 18 19  1  0
 19 54  1  0
 19 21  1  0
 21 55  1  0
 21 56  1  0
 21 22  1  0
 22 57  1  1
 22 23  1  0
 22 24  1  0
 23 58  1  0
 23 59  1  0
 23 60  1  0
 24 61  1  0
 24 62  1  0
 24 63  1  0
 25 26  1  0
 25 27  2  0
 26 35  1  0
 26 36  1  0
 27 37  1  0
 28 29  2  0
 28 48  1  0
 28 33  1  0
 29 30  1  0
 29 64  1  0
 30 31  2  0
 30 44  1  0
 31 32  1  0
 32 33  2  0
 33 49  1  0
 34 64  2  0
 34 46  1  0
 34 47  1  0
 64 45  1  0
M  END
