
     RDKit          3D

 46 48  0  0  0  0  0  0  0  0999 V2000
   -5.4351   -2.4144    1.7911 C   0  0  0  0  0  0  0  0  0  0  0  0
   -5.9077   -1.3618    0.9729 O   0  0  0  0  0  0  0  0  0  0  0  0
   -5.0394   -0.7371    0.1595 C   0  0  0  0  0  0  0  0  0  0  0  0
   -3.6889   -1.0658    0.0668 C   0  0  0  0  0  0  0  0  0  0  0  0
   -5.5592    0.2965   -0.6209 C   0  0  0  0  0  0  0  0  0  0  0  0
   -4.7510    1.0074   -1.4964 C   0  0  0  0  0  0  0  0  0  0  0  0
   -5.3226    2.1344   -2.3056 C   0  0  0  0  0  0  0  0  0  0  0  0
   -3.3990    0.6786   -1.5964 C   0  0  0  0  0  0  0  0  0  0  0  0
   -2.8990   -0.3465   -0.8168 C   0  0  0  0  0  0  0  0  0  0  0  0
   -1.5733   -0.7039   -0.9372 O   0  0  0  0  0  0  0  0  0  0  0  0
   -0.6411   -0.0224   -0.2382 C   0  0  0  0  0  0  0  0  0  0  0  0
    0.6817   -0.3858   -0.4518 C   0  0  0  0  0  0  0  0  0  0  0  0
   -0.9330    0.9983    0.6571 C   0  0  0  0  0  0  0  0  0  0  0  0
    0.1303    1.6217    1.3015 C   0  0  0  0  0  0  0  0  0  0  0  0
   -0.1150    2.7374    2.2718 C   0  0  0  0  0  0  0  0  0  0  0  0
    1.3961    1.2729    1.1037 N   0  0  0  0  0  0  0  0  0  0  0  0
    1.6754    0.2865    0.2506 C   0  0  0  0  0  0  0  0  0  0  0  0
    3.1039   -0.0473    0.0725 C   0  0  0  0  0  0  0  0  0  0  0  0
    3.5201   -1.2703   -0.4623 C   0  0  0  0  0  0  0  0  0  0  0  0
    4.8586   -1.5654   -0.6242 C   0  0  0  0  0  0  0  0  0  0  0  0
    5.8353   -0.6369   -0.2556 C   0  0  0  0  0  0  0  0  0  0  0  0
    7.1127   -1.0050   -0.4486 O   0  0  0  0  0  0  0  0  0  0  0  0
    8.1395   -0.1106   -0.0652 C   0  0  0  0  0  0  0  0  0  0  0  0
    5.4390    0.5867    0.2816 C   0  0  0  0  0  0  0  0  0  0  0  0
    4.0897    0.8636    0.4437 C   0  0  0  0  0  0  0  0  0  0  0  0
   -4.6605   -2.0760    2.4841 H   0  0  0  0  0  0  0  0  0  0  0  0
   -6.2888   -2.7662    2.3648 H   0  0  0  0  0  0  0  0  0  0  0  0
   -5.0425   -3.2452    1.1991 H   0  0  0  0  0  0  0  0  0  0  0  0
   -3.2443   -1.8625    0.6482 H   0  0  0  0  0  0  0  0  0  0  0  0
   -6.6121    0.5393   -0.5362 H   0  0  0  0  0  0  0  0  0  0  0  0
   -5.4078    3.0391   -1.7006 H   0  0  0  0  0  0  0  0  0  0  0  0
   -4.6936    2.3733   -3.1619 H   0  0  0  0  0  0  0  0  0  0  0  0
   -6.3204    1.8966   -2.6736 H   0  0  0  0  0  0  0  0  0  0  0  0
   -2.7476    1.2141   -2.2761 H   0  0  0  0  0  0  0  0  0  0  0  0
    0.9122   -1.1654   -1.1652 H   0  0  0  0  0  0  0  0  0  0  0  0
   -1.9472    1.3163    0.8546 H   0  0  0  0  0  0  0  0  0  0  0  0
    0.2686    2.4777    3.2592 H   0  0  0  0  0  0  0  0  0  0  0  0
    0.4031    3.6424    1.9521 H   0  0  0  0  0  0  0  0  0  0  0  0
   -1.1742    2.9680    2.3672 H   0  0  0  0  0  0  0  0  0  0  0  0
    2.7946   -2.0230   -0.7427 H   0  0  0  0  0  0  0  0  0  0  0  0
    5.1600   -2.5224   -1.0309 H   0  0  0  0  0  0  0  0  0  0  0  0
    8.0940    0.8262   -0.6266 H   0  0  0  0  0  0  0  0  0  0  0  0
    8.1038    0.1159    1.0034 H   0  0  0  0  0  0  0  0  0  0  0  0
    9.0806   -0.6073   -0.2874 H   0  0  0  0  0  0  0  0  0  0  0  0
    6.1630    1.3347    0.5751 H   0  0  0  0  0  0  0  0  0  0  0  0
    3.7973    1.8163    0.8638 H   0  0  0  0  0  0  0  0  0  0  0  0
  7  6  1  0
  6  5  1  0
  6  8  2  0
 22 21  1  0
 22 23  1  0
  5  3  2  0
  8  9  1  0
 20 21  1  0
 20 19  2  0
 21 24  2  0
 19 18  1  0
 24 25  1  0
  3  4  1  0
  3  2  1  0
  9  4  2  0
  9 10  1  0
 18 25  2  0
 18 17  1  0
 12 17  2  0
 12 11  1  0
  2  1  1  0
 17 16  1  0
 10 11  1  0
 11 13  2  0
 16 14  2  0
 13 14  1  0
 14 15  1  0
  1 26  1  0
  1 27  1  0
  1 28  1  0
  4 29  1  0
  5 30  1  0
  7 31  1  0
  7 32  1  0
  7 33  1  0
  8 34  1  0
 12 35  1  0
 13 36  1  0
 15 37  1  0
 15 38  1  0
 15 39  1  0
 19 40  1  0
 20 41  1  0
 23 42  1  0
 23 43  1  0
 23 44  1  0
 24 45  1  0
 25 46  1  0
M  END
