
     RDKit          3D

 33 34  0  0  0  0  0  0  0  0999 V2000
    1.3793    0.6016    0.1318 C   0  0  0  0  0  0  0  0  0  0  0  0
   -0.0943    0.5309   -0.0240 C   0  0  0  0  0  0  0  0  0  0  0  0
   -4.3981    0.4069   -0.5131 C   0  0  0  0  0  0  0  0  0  0  0  0
   -2.9042    0.4609   -0.3141 C   0  0  0  0  0  0  0  0  0  0  0  0
   -2.1314    1.3594   -1.0443 C   0  0  0  0  0  0  0  0  0  0  0  0
   -0.7540    1.3880   -0.9022 C   0  0  0  0  0  0  0  0  0  0  0  0
   -5.0936   -0.1322    0.6392 N   0  0  0  0  0  0  0  0  0  0  0  0
    2.2239   -0.3478   -0.4569 C   0  0  0  0  0  0  0  0  0  0  0  0
    3.5990   -0.2131   -0.2788 C   0  0  0  0  0  0  0  0  0  0  0  0
    4.1365    0.8312    0.4602 C   0  0  0  0  0  0  0  0  0  0  0  0
    3.2945    1.7712    1.0360 C   0  0  0  0  0  0  0  0  0  0  0  0
    1.9224    1.6507    0.8692 C   0  0  0  0  0  0  0  0  0  0  0  0
    1.6925   -1.4602   -1.3194 C   0  0  0  0  0  0  0  0  0  0  0  0
    1.4730   -1.0127   -2.7639 C   0  0  0  0  0  0  0  0  0  0  0  0
   -0.1337   -1.4194    1.8521 Cl  0  0  0  0  0  0  0  0  0  0  0  0
   -0.8856   -0.3462    0.7119 C   0  0  0  0  0  0  0  0  0  0  0  0
   -2.2642   -0.3938    0.5757 C   0  0  0  0  0  0  0  0  0  0  0  0
   -4.7419    1.4042   -0.8176 H   0  0  0  0  0  0  0  0  0  0  0  0
   -4.6027   -0.2498   -1.3639 H   0  0  0  0  0  0  0  0  0  0  0  0
   -2.6095    2.0472   -1.7319 H   0  0  0  0  0  0  0  0  0  0  0  0
   -0.1684    2.0926   -1.4797 H   0  0  0  0  0  0  0  0  0  0  0  0
   -5.0785    0.5421    1.3940 H   0  0  0  0  0  0  0  0  0  0  0  0
   -6.0680   -0.2701    0.4062 H   0  0  0  0  0  0  0  0  0  0  0  0
    4.2607   -0.9434   -0.7307 H   0  0  0  0  0  0  0  0  0  0  0  0
    5.2089    0.9095    0.5851 H   0  0  0  0  0  0  0  0  0  0  0  0
    3.7004    2.5917    1.6130 H   0  0  0  0  0  0  0  0  0  0  0  0
    1.2605    2.3783    1.3230 H   0  0  0  0  0  0  0  0  0  0  0  0
    2.3997   -2.2924   -1.3050 H   0  0  0  0  0  0  0  0  0  0  0  0
    0.7560   -1.8489   -0.9162 H   0  0  0  0  0  0  0  0  0  0  0  0
    0.7533   -0.1952   -2.8218 H   0  0  0  0  0  0  0  0  0  0  0  0
    2.4047   -0.6690   -3.2148 H   0  0  0  0  0  0  0  0  0  0  0  0
    1.0920   -1.8356   -3.3700 H   0  0  0  0  0  0  0  0  0  0  0  0
   -2.8473   -1.0879    1.1654 H   0  0  0  0  0  0  0  0  0  0  0  0
 14 13  1  0
 13  8  1  0
  9  8  2  0
  9 10  1  0
  8  1  1  0
 10 11  2  0
  6  5  1  0
  6  2  2  0
  5  4  2  0
  1  2  1  0
  1 12  2  0
  2 16  1  0
 11 12  1  0
  4  3  1  0
  4 17  1  0
  3  7  1  0
 16 17  2  0
 16 15  1  0
  3 18  1  0
  3 19  1  0
  5 20  1  0
  6 21  1  0
  7 22  1  0
  7 23  1  0
  9 24  1  0
 10 25  1  0
 11 26  1  0
 12 27  1  0
 13 28  1  0
 13 29  1  0
 14 30  1  0
 14 31  1  0
 14 32  1  0
 17 33  1  0
M  END
