
     RDKit          3D

 26 25  0  0  0  0  0  0  0  0999 V2000
    2.2356    0.0429    0.0231 N   0  0  1  0  0  0  0  0  0  0  0  0
    2.3600    0.8832    1.2453 C   0  0  0  0  0  0  0  0  0  0  0  0
   -3.8709   -0.8500    0.0000 O   0  0  0  0  0  0  0  0  0  0  0  0
   -2.8302   -0.0256    0.0159 C   0  0  0  0  0  0  0  0  0  0  0  0
   -2.9353    1.1748    0.0298 O   0  0  0  0  0  0  0  0  0  0  0  0
   -1.5284   -0.7800    0.0163 C   0  0  0  0  0  0  0  0  0  0  0  0
    0.9360   -0.7173    0.0199 C   0  0  0  0  0  0  0  0  0  0  0  0
    2.3575    0.8986   -1.1887 C   0  0  0  0  0  0  0  0  0  0  0  0
    3.3443   -0.9535    0.0160 C   0  0  0  0  0  0  0  0  0  0  0  0
   -0.3157    0.1397    0.0211 C   0  0  0  0  0  0  0  0  0  0  0  0
    0.9613   -1.3559   -0.8643 H   0  0  0  0  0  0  0  0  0  0  0  0
    0.9601   -1.3618    0.8996 H   0  0  0  0  0  0  0  0  0  0  0  0
    2.2328    0.2553    2.1233 H   0  0  0  0  0  0  0  0  0  0  0  0
    3.3484    1.3346    1.2598 H   0  0  0  0  0  0  0  0  0  0  0  0
    1.6103    1.6679    1.2380 H   0  0  0  0  0  0  0  0  0  0  0  0
    1.6118    1.6869   -1.1667 H   0  0  0  0  0  0  0  0  0  0  0  0
    3.3485    1.3445   -1.2032 H   0  0  0  0  0  0  0  0  0  0  0  0
    2.2214    0.2828   -2.0739 H   0  0  0  0  0  0  0  0  0  0  0  0
    3.2691   -1.5660   -0.8783 H   0  0  0  0  0  0  0  0  0  0  0  0
    4.2941   -0.4261    0.0215 H   0  0  0  0  0  0  0  0  0  0  0  0
    3.2665   -1.5802    0.8999 H   0  0  0  0  0  0  0  0  0  0  0  0
   -0.3471    0.7848   -0.8574 H   0  0  0  0  0  0  0  0  0  0  0  0
   -0.3504    0.7796    0.9033 H   0  0  0  0  0  0  0  0  0  0  0  0
   -4.6969   -0.3434    0.0035 H   0  0  0  0  0  0  0  0  0  0  0  0
   -1.5177   -1.4415    0.8879 H   0  0  0  0  0  0  0  0  0  0  0  0
   -1.5136   -1.4384   -0.8575 H   0  0  0  0  0  0  0  0  0  0  0  0
  1  7  1  1
  1  2  1  0
  1  8  1  0
  1  9  1  0
  7 10  1  0
  3  4  1  0
  4  5  2  0
  4  6  1  0
  6 10  1  0
  7 11  1  0
  7 12  1  0
  2 13  1  0
  2 14  1  0
  2 15  1  0
  8 16  1  0
  8 17  1  0
  8 18  1  0
  9 19  1  0
  9 20  1  0
  9 21  1  0
 10 22  1  0
 10 23  1  0
  3 24  1  0
  6 25  1  0
  6 26  1  0
M  CHG  1   1   1
M  END
