
     RDKit          3D

 45 48  0  0  0  0  0  0  0  0999 V2000
   -3.3585    0.1571   -0.3880 C   0  0  0  0  0  0  0  0  0  0  0  0
   -2.5948    1.3083   -0.5745 C   0  0  0  0  0  0  0  0  0  0  0  0
   -3.1677    2.5693   -0.5231 C   0  0  0  0  0  0  0  0  0  0  0  0
   -4.5323    2.7071   -0.2838 C   0  0  0  0  0  0  0  0  0  0  0  0
   -5.3121    1.5660   -0.1052 C   0  0  0  0  0  0  0  0  0  0  0  0
   -4.7268    0.3134   -0.1575 C   0  0  0  0  0  0  0  0  0  0  0  0
    0.9000   -0.8182    0.0530 C   0  0  0  0  0  0  0  0  0  0  0  0
    3.3003   -0.1553    0.0419 C   0  0  0  0  0  0  0  0  0  0  0  0
    5.8405   -0.2249   -1.1051 C   0  0  0  0  0  0  0  0  0  0  0  0
    5.2078   -1.3963   -0.7250 C   0  0  0  0  0  0  0  0  0  0  0  0
   -2.7633   -1.1823   -0.4540 C   0  0  0  0  0  0  0  0  0  0  0  0
   -1.4639   -1.5912   -0.0570 C   0  0  0  0  0  0  0  0  0  0  0  0
   -1.4381   -2.9500   -0.3415 C   0  0  0  0  0  0  0  0  0  0  0  0
   -0.3883   -0.8251    0.5805 C   0  0  0  0  0  0  0  0  0  0  0  0
   -0.6134   -0.0853    1.7432 C   0  0  0  0  0  0  0  0  0  0  0  0
    0.4067    0.6242    2.3485 C   0  0  0  0  0  0  0  0  0  0  0  0
    1.9480   -0.1151    0.6441 C   0  0  0  0  0  0  0  0  0  0  0  0
    3.9324    1.0253   -0.3433 C   0  0  0  0  0  0  0  0  0  0  0  0
    5.2073    1.0107   -0.9231 C   0  0  0  0  0  0  0  0  0  0  0  0
    5.7928    2.1768   -1.3588 N   0  0  0  0  0  0  0  0  0  0  0  0
   -5.1438    3.9061   -0.2168 O   0  0  0  0  0  0  0  0  0  0  0  0
   -2.6420   -3.2518   -0.8538 N   0  0  0  0  0  0  0  0  0  0  0  0
   -3.4600   -2.1925   -0.9388 N   0  0  0  0  0  0  0  0  0  0  0  0
   -0.4824   -3.8987   -0.0784 N   0  0  0  0  0  0  0  0  0  0  0  0
    1.6927    0.6111    1.8127 C   0  0  0  0  0  0  0  0  0  0  0  0
    3.9437   -1.3770   -0.1516 C   0  0  0  0  0  0  0  0  0  0  0  0
   -1.5349    1.2285   -0.7760 H   0  0  0  0  0  0  0  0  0  0  0  0
   -2.5486    3.4461   -0.6770 H   0  0  0  0  0  0  0  0  0  0  0  0
   -6.3748    1.6643    0.0793 H   0  0  0  0  0  0  0  0  0  0  0  0
   -5.3459   -0.5618   -0.0079 H   0  0  0  0  0  0  0  0  0  0  0  0
    1.1019   -1.3505   -0.8704 H   0  0  0  0  0  0  0  0  0  0  0  0
    6.8271   -0.2618   -1.5520 H   0  0  0  0  0  0  0  0  0  0  0  0
    5.7139   -2.3418   -0.8742 H   0  0  0  0  0  0  0  0  0  0  0  0
   -1.6024   -0.0666    2.1835 H   0  0  0  0  0  0  0  0  0  0  0  0
    0.2165    1.1833    3.2564 H   0  0  0  0  0  0  0  0  0  0  0  0
    3.4180    1.9746   -0.2341 H   0  0  0  0  0  0  0  0  0  0  0  0
    5.4645    3.0251   -0.9263 H   0  0  0  0  0  0  0  0  0  0  0  0
    6.7963    2.1609   -1.4440 H   0  0  0  0  0  0  0  0  0  0  0  0
    3.5077    1.1754    2.0605 H   0  0  0  0  0  0  0  0  0  0  0  0
   -4.5058    4.6165   -0.3468 H   0  0  0  0  0  0  0  0  0  0  0  0
   -2.9600   -4.1547   -1.1670 H   0  0  0  0  0  0  0  0  0  0  0  0
    0.4334   -3.5142    0.0920 H   0  0  0  0  0  0  0  0  0  0  0  0
   -0.4305   -4.6582   -0.7405 H   0  0  0  0  0  0  0  0  0  0  0  0
    3.4670   -2.2989    0.1548 H   0  0  0  0  0  0  0  0  0  0  0  0
    2.6449    1.2982    2.4765 O   0  0  0  0  0  0  0  0  0  0  0  0
 16 15  2  0
 16 25  1  0
 15 14  1  0
 45 25  1  0
 25 17  2  0
 14 12  1  0
 14  7  2  0
 24 13  1  0
 12 13  2  0
 12 11  1  0
 13 22  1  0
 11  1  1  0
 11 23  2  0
 17  7  1  0
 17  8  1  0
  1  2  2  0
  1  6  1  0
  2  3  1  0
  6  5  2  0
  3  4  2  0
  5  4  1  0
 22 23  1  0
  4 21  1  0
  8 26  2  0
  8 18  1  0
 26 10  1  0
 18 19  2  0
 10  9  2  0
 19  9  1  0
 19 20  1  0
  2 27  1  0
  3 28  1  0
  5 29  1  0
  6 30  1  0
  7 31  1  0
  9 32  1  0
 10 33  1  0
 15 34  1  0
 16 35  1  0
 18 36  1  0
 20 37  1  0
 20 38  1  0
 45 39  1  0
 21 40  1  0
 22 41  1  0
 24 42  1  0
 24 43  1  0
 26 44  1  0
M  END
