
     RDKit          3D

 51 53  0  0  0  0  0  0  0  0999 V2000
    0.9178   -3.9961    6.8081 N   0  0  0  0  0  0  0  0  0  0  0  0
   -0.2753   -3.7232    6.0481 C   0  0  0  0  0  0  0  0  0  0  0  0
   -0.1839   -3.9936    4.5496 C   0  0  0  0  0  0  0  0  0  0  0  0
    0.8393   -4.3853    4.0088 O   0  0  0  0  0  0  0  0  0  0  0  0
   -1.3192   -3.7803    3.8621 N   0  0  0  0  0  0  0  0  0  0  0  0
   -1.3621   -3.9017    2.4276 C   0  0  1  0  0  0  0  0  0  0  0  0
   -2.7863   -3.6630    1.9363 C   0  0  0  0  0  0  0  0  0  0  0  0
   -0.4297   -2.8733    1.7858 C   0  0  0  0  0  0  0  0  0  0  0  0
   -0.2584   -1.7741    2.2929 O   0  0  0  0  0  0  0  0  0  0  0  0
    0.1459   -3.2102    0.6223 N   0  0  0  0  0  0  0  0  0  0  0  0
   -0.0225   -4.4557   -0.1222 C   0  0  0  0  0  0  0  0  0  0  0  0
    0.9552   -2.2372   -0.0767 C   0  0  1  0  0  0  0  0  0  0  0  0
    1.5135   -3.0279   -1.2705 C   0  0  0  0  0  0  0  0  0  0  0  0
    0.4544   -4.0945   -1.5227 C   0  0  0  0  0  0  0  0  0  0  0  0
    0.0905   -1.0710   -0.5472 C   0  0  0  0  0  0  0  0  0  0  0  0
   -1.0702   -1.2233   -0.8721 O   0  0  0  0  0  0  0  0  0  0  0  0
    0.7676    0.1020   -0.6146 N   0  0  0  0  0  0  0  0  0  0  0  0
    0.3242    1.3540   -1.0524 C   0  0  0  0  0  0  0  0  0  0  0  0
    1.0719    2.4543   -0.7025 C   0  0  0  0  0  0  0  0  0  0  0  0
    0.7123    3.7497   -1.1272 C   0  0  0  0  0  0  0  0  0  0  0  0
   -0.4457    3.9202   -1.9279 C   0  0  0  0  0  0  0  0  0  0  0  0
   -0.8109    5.2193   -2.3508 C   0  0  0  0  0  0  0  0  0  0  0  0
   -0.0580    6.3046   -1.9940 C   0  0  0  0  0  0  0  0  0  0  0  0
    1.0951    6.1364   -1.1968 C   0  0  0  0  0  0  0  0  0  0  0  0
    1.4716    4.8915   -0.7727 C   0  0  0  0  0  0  0  0  0  0  0  0
   -1.1916    2.7727   -2.2770 C   0  0  0  0  0  0  0  0  0  0  0  0
   -0.8291    1.5226   -1.8597 C   0  0  0  0  0  0  0  0  0  0  0  0
    1.1811   -4.9670    6.7010 H   0  0  0  0  0  0  0  0  0  0  0  0
    1.6910   -3.4584    6.4381 H   0  0  0  0  0  0  0  0  0  0  0  0
   -0.5597   -2.6754    6.1843 H   0  0  0  0  0  0  0  0  0  0  0  0
   -1.1066   -4.3078    6.4520 H   0  0  0  0  0  0  0  0  0  0  0  0
   -2.1090   -3.3648    4.3307 H   0  0  0  0  0  0  0  0  0  0  0  0
   -1.0543   -4.9135    2.1534 H   0  0  0  0  0  0  0  0  0  0  0  0
   -2.8546   -3.7724    0.8550 H   0  0  0  0  0  0  0  0  0  0  0  0
   -3.4674   -4.3842    2.3876 H   0  0  0  0  0  0  0  0  0  0  0  0
   -3.1250   -2.6585    2.1937 H   0  0  0  0  0  0  0  0  0  0  0  0
   -1.0589   -4.7912   -0.1207 H   0  0  0  0  0  0  0  0  0  0  0  0
    0.5912   -5.2485    0.3138 H   0  0  0  0  0  0  0  0  0  0  0  0
    1.7649   -1.8721    0.5602 H   0  0  0  0  0  0  0  0  0  0  0  0
    2.4588   -3.4875   -0.9770 H   0  0  0  0  0  0  0  0  0  0  0  0
    1.7109   -2.3980   -2.1375 H   0  0  0  0  0  0  0  0  0  0  0  0
   -0.3712   -3.6869   -2.1075 H   0  0  0  0  0  0  0  0  0  0  0  0
    0.8448   -4.9602   -2.0554 H   0  0  0  0  0  0  0  0  0  0  0  0
    1.6954    0.0985   -0.2178 H   0  0  0  0  0  0  0  0  0  0  0  0
    1.9566    2.3338   -0.0863 H   0  0  0  0  0  0  0  0  0  0  0  0
   -1.6968    5.3429   -2.9625 H   0  0  0  0  0  0  0  0  0  0  0  0
   -0.3430    7.2962   -2.3202 H   0  0  0  0  0  0  0  0  0  0  0  0
    1.6834    7.0022   -0.9213 H   0  0  0  0  0  0  0  0  0  0  0  0
    2.3554    4.7665   -0.1587 H   0  0  0  0  0  0  0  0  0  0  0  0
   -2.0720    2.8880   -2.8975 H   0  0  0  0  0  0  0  0  0  0  0  0
   -1.4223    0.6724   -2.1533 H   0  0  0  0  0  0  0  0  0  0  0  0
  1  2  1  0
  1 28  1  0
  1 29  1  0
  2  3  1  0
  2 30  1  0
  2 31  1  0
  3  4  2  0
  3  5  1  0
  5  6  1  0
  5 32  1  0
  6  7  1  0
  6  8  1  0
  6 33  1  1
  7 34  1  0
  7 35  1  0
  7 36  1  0
  8  9  2  0
  8 10  1  0
 10 11  1  0
 10 12  1  0
 11 14  1  0
 11 37  1  0
 11 38  1  0
 12 13  1  0
 12 15  1  0
 12 39  1  1
 13 14  1  0
 13 40  1  0
 13 41  1  0
 14 42  1  0
 14 43  1  0
 15 16  2  0
 15 17  1  0
 17 18  1  0
 17 44  1  0
 18 19  2  0
 18 27  1  0
 19 20  1  0
 19 45  1  0
 20 21  2  0
 20 25  1  0
 21 22  1  0
 21 26  1  0
 22 23  2  0
 22 46  1  0
 23 24  1  0
 23 47  1  0
 24 25  2  0
 24 48  1  0
 25 49  1  0
 26 27  2  0
 26 50  1  0
 27 51  1  0
M  END
