
     RDKit          3D

 84 88  0  0  0  0  0  0  0  0999 V2000
    4.2256   -9.4118   -4.5997 O   0  0  0  0  0  0  0  0  0  0  0  0
    3.5867   -8.8771   -3.7079 C   0  0  0  0  0  0  0  0  0  0  0  0
    2.2305   -8.9110   -3.5568 N   0  0  0  0  0  0  0  0  0  0  0  0
    1.7795   -8.2851   -2.3400 C   0  0  1  0  0  0  0  0  0  0  0  0
    3.0841   -7.6417   -1.7814 C   0  0  1  0  0  0  0  0  0  0  0  0
    4.0833   -8.1401   -2.6858 N   0  0  0  0  0  0  0  0  0  0  0  0
    2.9463   -6.1156   -1.8100 C   0  0  0  0  0  0  0  0  0  0  0  0
    0.7418   -7.1798   -2.5824 C   0  0  1  0  0  0  0  0  0  0  0  0
    1.7277   -5.7284   -3.0958 S   0  0  0  0  0  0  0  0  0  0  0  0
   -0.3464   -7.5476   -3.5736 C   0  0  0  0  0  0  0  0  0  0  0  0
   -1.2755   -6.4010   -3.9600 C   0  0  0  0  0  0  0  0  0  0  0  0
   -2.5087   -6.9147   -4.6990 C   0  0  0  0  0  0  0  0  0  0  0  0
   -3.2505   -5.8486   -5.4986 C   0  0  0  0  0  0  0  0  0  0  0  0
   -3.6895   -4.6721   -4.6543 C   0  0  0  0  0  0  0  0  0  0  0  0
   -4.2551   -4.8229   -3.5785 O   0  0  0  0  0  0  0  0  0  0  0  0
   -3.4350   -3.4637   -5.1837 N   0  0  0  0  0  0  0  0  0  0  0  0
   -3.6823   -2.2171   -4.4955 C   0  0  0  0  0  0  0  0  0  0  0  0
   -2.5336   -1.8311   -3.5706 C   0  0  0  0  0  0  0  0  0  0  0  0
   -2.7790   -0.5041   -2.8601 C   0  0  0  0  0  0  0  0  0  0  0  0
   -1.5672    0.0054   -2.0953 C   0  0  0  0  0  0  0  0  0  0  0  0
   -1.1756   -0.9431   -1.0681 N   0  0  0  0  0  0  0  0  0  0  0  0
   -0.1695   -0.6135   -0.2214 C   0  0  0  0  0  0  0  0  0  0  0  0
    0.2877   -1.5187    0.7181 N   0  0  0  0  0  0  0  0  0  0  0  0
    1.2938   -0.8764    1.4048 C   0  0  0  0  0  0  0  0  0  0  0  0
    1.3480    0.3929    0.8480 C   0  0  0  0  0  0  0  0  0  0  0  0
    0.4377    0.5404   -0.1678 N   0  0  0  0  0  0  0  0  0  0  0  0
    2.3005    1.2723    1.3773 C   0  0  0  0  0  0  0  0  0  0  0  0
    2.4272    2.5381    0.9497 N   0  0  0  0  0  0  0  0  0  0  0  0
    2.0761   -1.3222    2.3833 N   0  0  0  0  0  0  0  0  0  0  0  0
    2.9405   -0.4094    2.7976 C   0  0  0  0  0  0  0  0  0  0  0  0
    3.0949    0.8340    2.3616 N   0  0  0  0  0  0  0  0  0  0  0  0
   -0.2893   -2.8364    0.9115 C   0  0  1  0  0  0  0  0  0  0  0  0
    0.3412   -3.9176    0.0284 C   0  0  2  0  0  0  0  0  0  0  0  0
   -0.2946   -3.9404   -1.2207 O   0  0  0  0  0  0  0  0  0  0  0  0
    0.1085   -5.1692    0.8778 C   0  0  2  0  0  0  0  0  0  0  0  0
   -1.2110   -5.6259    0.7408 O   0  0  0  0  0  0  0  0  0  0  0  0
    0.3188   -4.6167    2.2800 C   0  0  2  0  0  0  0  0  0  0  0  0
   -0.1411   -3.2573    2.2262 O   0  0  0  0  0  0  0  0  0  0  0  0
    1.7716   -4.6957    2.7192 C   0  0  0  0  0  0  0  0  0  0  0  0
    1.9696   -4.0131    3.9754 N   0  0  0  0  0  0  0  0  0  0  0  0
    3.3277   -4.1498    4.4709 C   0  0  0  0  0  0  0  0  0  0  0  0
    3.5176   -3.3595    5.7533 C   0  0  0  0  0  0  0  0  0  0  0  0
    1.7039   -9.6527   -3.9873 H   0  0  0  0  0  0  0  0  0  0  0  0
    5.0551   -7.8875   -2.6273 H   0  0  0  0  0  0  0  0  0  0  0  0
    1.3596   -9.0189   -1.6465 H   0  0  0  0  0  0  0  0  0  0  0  0
    3.2864   -7.9614   -0.7570 H   0  0  0  0  0  0  0  0  0  0  0  0
    0.2804   -6.9383   -1.6192 H   0  0  0  0  0  0  0  0  0  0  0  0
    2.5962   -5.7533   -0.8430 H   0  0  0  0  0  0  0  0  0  0  0  0
    3.8899   -5.6189   -2.0307 H   0  0  0  0  0  0  0  0  0  0  0  0
    0.1019   -7.9535   -4.4835 H   0  0  0  0  0  0  0  0  0  0  0  0
   -0.9315   -8.3557   -3.1227 H   0  0  0  0  0  0  0  0  0  0  0  0
   -0.7306   -5.6932   -4.5944 H   0  0  0  0  0  0  0  0  0  0  0  0
   -1.5861   -5.8434   -3.0713 H   0  0  0  0  0  0  0  0  0  0  0  0
   -3.1865   -7.3875   -3.9848 H   0  0  0  0  0  0  0  0  0  0  0  0
   -2.2130   -7.7009   -5.3990 H   0  0  0  0  0  0  0  0  0  0  0  0
   -2.6298   -5.5173   -6.3348 H   0  0  0  0  0  0  0  0  0  0  0  0
   -4.1483   -6.2907   -5.9407 H   0  0  0  0  0  0  0  0  0  0  0  0
   -2.9022   -3.4195   -6.0367 H   0  0  0  0  0  0  0  0  0  0  0  0
   -4.6138   -2.2955   -3.9335 H   0  0  0  0  0  0  0  0  0  0  0  0
   -3.8300   -1.4442   -5.2513 H   0  0  0  0  0  0  0  0  0  0  0  0
   -1.6107   -1.7738   -4.1563 H   0  0  0  0  0  0  0  0  0  0  0  0
   -2.4000   -2.6405   -2.8470 H   0  0  0  0  0  0  0  0  0  0  0  0
   -3.6317   -0.5953   -2.1817 H   0  0  0  0  0  0  0  0  0  0  0  0
   -3.0435    0.2594   -3.5965 H   0  0  0  0  0  0  0  0  0  0  0  0
   -1.8025    0.9570   -1.6183 H   0  0  0  0  0  0  0  0  0  0  0  0
   -0.7435    0.1925   -2.7952 H   0  0  0  0  0  0  0  0  0  0  0  0
   -1.1603   -1.9066   -1.3753 H   0  0  0  0  0  0  0  0  0  0  0  0
   -1.3542   -2.7344    0.6620 H   0  0  0  0  0  0  0  0  0  0  0  0
    1.9469    2.8412    0.1208 H   0  0  0  0  0  0  0  0  0  0  0  0
    3.2081    3.0890    1.2616 H   0  0  0  0  0  0  0  0  0  0  0  0
    1.4161   -3.7253   -0.0730 H   0  0  0  0  0  0  0  0  0  0  0  0
    0.3243   -4.2709   -1.8948 H   0  0  0  0  0  0  0  0  0  0  0  0
    0.8330   -5.9663    0.6597 H   0  0  0  0  0  0  0  0  0  0  0  0
   -1.4627   -5.5491   -0.1875 H   0  0  0  0  0  0  0  0  0  0  0  0
   -0.3018   -5.1429    3.0103 H   0  0  0  0  0  0  0  0  0  0  0  0
    2.4327   -4.3157    1.9219 H   0  0  0  0  0  0  0  0  0  0  0  0
    2.0159   -5.7557    2.8429 H   0  0  0  0  0  0  0  0  0  0  0  0
    1.8077   -3.0266    3.7932 H   0  0  0  0  0  0  0  0  0  0  0  0
    3.5256   -5.2090    4.6609 H   0  0  0  0  0  0  0  0  0  0  0  0
    4.0753   -3.8278    3.7284 H   0  0  0  0  0  0  0  0  0  0  0  0
    3.3408   -2.2938    5.5908 H   0  0  0  0  0  0  0  0  0  0  0  0
    2.8284   -3.6972    6.5281 H   0  0  0  0  0  0  0  0  0  0  0  0
    4.5338   -3.4704    6.1318 H   0  0  0  0  0  0  0  0  0  0  0  0
    3.6089   -0.7156    3.5958 H   0  0  0  0  0  0  0  0  0  0  0  0
  1  2  2  0
  2  3  1  0
  2  6  1  0
  3  4  1  0
  3 43  1  0
  4  5  1  0
  4  8  1  0
  4 45  1  1
  5  6  1  0
  5  7  1  0
  5 46  1  1
  6 44  1  0
  7  9  1  0
  7 48  1  0
  7 49  1  0
  8  9  1  0
  8 10  1  0
  8 47  1  1
 10 11  1  0
 10 50  1  0
 10 51  1  0
 11 12  1  0
 11 52  1  0
 11 53  1  0
 12 13  1  0
 12 54  1  0
 12 55  1  0
 13 14  1  0
 13 56  1  0
 13 57  1  0
 14 15  2  0
 14 16  1  0
 16 17  1  0
 16 58  1  0
 17 18  1  0
 17 59  1  0
 17 60  1  0
 18 19  1  0
 18 61  1  0
 18 62  1  0
 19 20  1  0
 19 63  1  0
 19 64  1  0
 20 21  1  0
 20 65  1  0
 20 66  1  0
 21 22  1  0
 21 67  1  0
 22 23  1  0
 22 26  2  0
 23 24  1  0
 23 32  1  0
 24 25  2  0
 24 29  1  0
 25 26  1  0
 25 27  1  0
 27 28  1  0
 27 31  2  0
 28 69  1  0
 28 70  1  0
 29 30  2  0
 30 84  1  0
 30 31  1  0
 32 33  1  0
 32 38  1  0
 32 68  1  6
 33 34  1  0
 33 35  1  0
 33 71  1  6
 34 72  1  0
 35 36  1  0
 35 37  1  0
 35 73  1  6
 36 74  1  0
 37 38  1  0
 37 39  1  0
 37 75  1  1
 39 40  1  0
 39 76  1  0
 39 77  1  0
 40 41  1  0
 40 78  1  0
 41 42  1  0
 41 79  1  0
 41 80  1  0
 42 81  1  0
 42 82  1  0
 42 83  1  0
M  END
