
     RDKit          3D

 58 60  0  0  0  0  0  0  0  0999 V2000
    1.7569   -1.4899  -12.3734 C   0  0  0  0  0  0  0  0  0  0  0  0
    1.7318   -0.3191  -11.7477 C   0  0  0  0  0  0  0  0  0  0  0  0
    0.6873    0.0680  -10.7439 C   0  0  0  0  0  0  0  0  0  0  0  0
    1.2179    0.2642   -9.4001 N   0  0  0  0  0  0  0  0  0  0  0  0
    0.1310    0.3444   -8.4393 C   0  0  0  0  0  0  0  0  0  0  0  0
    0.5786    0.3252   -6.9836 C   0  0  0  0  0  0  0  0  0  0  0  0
   -0.6084    0.1478   -6.0436 C   0  0  0  0  0  0  0  0  0  0  0  0
   -0.2203    0.1793   -4.5712 C   0  0  0  0  0  0  0  0  0  0  0  0
   -1.4203   -0.0228   -3.6529 C   0  0  0  0  0  0  0  0  0  0  0  0
   -1.0198    0.0162   -2.1941 C   0  0  0  0  0  0  0  0  0  0  0  0
   -2.1949   -0.1611   -1.4100 O   0  0  0  0  0  0  0  0  0  0  0  0
   -4.4339   -0.0842    4.1379 C   0  0  0  0  0  0  0  0  0  0  0  0
   -2.1169   -0.1219   -0.0734 C   0  0  0  0  0  0  0  0  0  0  0  0
   -4.5053   -0.1569    2.7787 C   0  0  0  0  0  0  0  0  0  0  0  0
   -0.8941   -0.0114    0.6314 C   0  0  0  0  0  0  0  0  0  0  0  0
   -0.8855    0.0031    1.9993 C   0  0  0  0  0  0  0  0  0  0  0  0
   -3.2733   -0.0564    4.8267 N   0  0  0  0  0  0  0  0  0  0  0  0
   -2.1415   -0.0820    4.1672 C   0  0  0  0  0  0  0  0  0  0  0  0
   -2.0819   -0.0888    2.7429 C   0  0  0  0  0  0  0  0  0  0  0  0
   -3.3066   -0.1528    2.0287 C   0  0  0  0  0  0  0  0  0  0  0  0
   -3.3027   -0.1813    0.6244 C   0  0  0  0  0  0  0  0  0  0  0  0
   -0.9160   -0.0957    4.9997 C   0  0  0  0  0  0  0  0  0  0  0  0
   -0.7873    0.8115    6.0492 C   0  0  0  0  0  0  0  0  0  0  0  0
    0.3313    0.8040    6.8671 C   0  0  0  0  0  0  0  0  0  0  0  0
    1.3255   -0.1377    6.6419 C   0  0  0  0  0  0  0  0  0  0  0  0
    1.2133   -1.0653    5.6176 C   0  0  0  0  0  0  0  0  0  0  0  0
    0.0925   -1.0362    4.8011 C   0  0  0  0  0  0  0  0  0  0  0  0
    2.8513   -0.1611    7.7525 Br  0  0  0  0  0  0  0  0  0  0  0  0
    2.0900    1.4184   -9.3308 C   0  0  0  0  0  0  0  0  0  0  0  0
    2.5169   -1.7254  -13.1074 H   0  0  0  0  0  0  0  0  0  0  0  0
    1.0156   -2.2564  -12.1781 H   0  0  0  0  0  0  0  0  0  0  0  0
    2.4922    0.4184  -11.9861 H   0  0  0  0  0  0  0  0  0  0  0  0
   -0.0637   -0.7247  -10.6985 H   0  0  0  0  0  0  0  0  0  0  0  0
    0.1660    0.9736  -11.1032 H   0  0  0  0  0  0  0  0  0  0  0  0
   -0.5005    1.2358   -8.6079 H   0  0  0  0  0  0  0  0  0  0  0  0
   -0.5188   -0.5208   -8.6040 H   0  0  0  0  0  0  0  0  0  0  0  0
    1.2929   -0.4910   -6.8379 H   0  0  0  0  0  0  0  0  0  0  0  0
    1.1000    1.2506   -6.7242 H   0  0  0  0  0  0  0  0  0  0  0  0
   -1.3479    0.9325   -6.2365 H   0  0  0  0  0  0  0  0  0  0  0  0
   -1.1048   -0.8021   -6.2672 H   0  0  0  0  0  0  0  0  0  0  0  0
    0.5290   -0.5946   -4.3752 H   0  0  0  0  0  0  0  0  0  0  0  0
    0.2585    1.1367   -4.3416 H   0  0  0  0  0  0  0  0  0  0  0  0
   -2.1654    0.7541   -3.8465 H   0  0  0  0  0  0  0  0  0  0  0  0
   -1.8925   -0.9841   -3.8744 H   0  0  0  0  0  0  0  0  0  0  0  0
   -0.2938   -0.7761   -1.9804 H   0  0  0  0  0  0  0  0  0  0  0  0
   -0.5487    0.9753   -1.9520 H   0  0  0  0  0  0  0  0  0  0  0  0
   -5.4640   -0.2013    2.2786 H   0  0  0  0  0  0  0  0  0  0  0  0
    0.0459    0.0698    0.1033 H   0  0  0  0  0  0  0  0  0  0  0  0
    0.0628    0.1091    2.5076 H   0  0  0  0  0  0  0  0  0  0  0  0
   -4.2415   -0.2382    0.0867 H   0  0  0  0  0  0  0  0  0  0  0  0
   -1.5655    1.5419    6.2270 H   0  0  0  0  0  0  0  0  0  0  0  0
    0.4163    1.5257    7.6681 H   0  0  0  0  0  0  0  0  0  0  0  0
    1.9794   -1.8101    5.4499 H   0  0  0  0  0  0  0  0  0  0  0  0
    0.0032   -1.7734    4.0137 H   0  0  0  0  0  0  0  0  0  0  0  0
    2.5328    1.5059   -8.3394 H   0  0  0  0  0  0  0  0  0  0  0  0
    2.9158    1.3199  -10.0350 H   0  0  0  0  0  0  0  0  0  0  0  0
    1.5714    2.3651   -9.5521 H   0  0  0  0  0  0  0  0  0  0  0  0
   -5.3367   -0.0582    4.7366 H   0  0  0  0  0  0  0  0  0  0  0  0
  1  2  2  0
  1 30  1  0
  1 31  1  0
  2  3  1  0
  2 32  1  0
  3  4  1  0
  3 33  1  0
  3 34  1  0
  4  5  1  0
  4 29  1  0
  5  6  1  0
  5 35  1  0
  5 36  1  0
  6  7  1  0
  6 37  1  0
  6 38  1  0
  7  8  1  0
  7 39  1  0
  7 40  1  0
  8  9  1  0
  8 41  1  0
  8 42  1  0
  9 10  1  0
  9 43  1  0
  9 44  1  0
 10 11  1  0
 10 45  1  0
 10 46  1  0
 11 13  1  0
 12 14  2  0
 12 17  1  0
 12 58  1  0
 13 15  1  0
 13 21  2  0
 14 20  1  0
 14 47  1  0
 15 16  2  0
 15 48  1  0
 16 19  1  0
 16 49  1  0
 17 18  2  0
 18 19  1  0
 18 22  1  0
 19 20  2  0
 20 21  1  0
 21 50  1  0
 22 23  2  0
 22 27  1  0
 23 24  1  0
 23 51  1  0
 24 25  2  0
 24 52  1  0
 25 26  1  0
 25 28  1  0
 26 27  2  0
 26 53  1  0
 27 54  1  0
 29 55  1  0
 29 56  1  0
 29 57  1  0
M  END
