
     RDKit          3D

 55 58  0  0  0  0  0  0  0  0999 V2000
    4.2486    3.5953   -1.5952 C   0  0  0  0  0  0  0  0  0  0  0  0
    3.8080    5.1614    0.2953 C   0  0  0  0  0  0  0  0  0  0  0  0
   -8.5742   -0.7800   -0.1255 O   0  0  0  0  0  0  0  0  0  0  0  0
   -7.4294   -2.6814    0.0863 O   0  0  0  0  0  0  0  0  0  0  0  0
    3.6241   -0.5716    0.2286 C   0  0  0  0  0  0  0  0  0  0  0  0
    3.5643   -1.7756    0.1479 C   0  0  0  0  0  0  0  0  0  0  0  0
   -2.5013    1.4424    0.0056 C   0  0  0  0  0  0  0  0  0  0  0  0
   -1.2648    0.9307    0.0831 C   0  0  0  0  0  0  0  0  0  0  0  0
    4.8163    1.4835    0.6105 C   0  0  0  0  0  0  0  0  0  0  0  0
    3.3039   -5.9722   -0.0985 C   0  0  0  0  0  0  0  0  0  0  0  0
    4.4909   -5.3718    0.3036 C   0  0  0  0  0  0  0  0  0  0  0  0
    2.2061   -5.1844   -0.4234 C   0  0  0  0  0  0  0  0  0  0  0  0
    4.5836   -3.9917    0.3837 C   0  0  0  0  0  0  0  0  0  0  0  0
    2.2902   -3.8036   -0.3466 C   0  0  0  0  0  0  0  0  0  0  0  0
   -4.9563    1.3714   -0.0847 C   0  0  0  0  0  0  0  0  0  0  0  0
   -3.7936   -0.7182    0.0906 C   0  0  0  0  0  0  0  0  0  0  0  0
    0.0575    3.0706   -0.0579 C   0  0  0  0  0  0  0  0  0  0  0  0
   -6.1661    0.7029   -0.0941 C   0  0  0  0  0  0  0  0  0  0  0  0
   -4.9999   -1.3899    0.0836 C   0  0  0  0  0  0  0  0  0  0  0  0
    1.2842    3.7115   -0.0839 C   0  0  0  0  0  0  0  0  0  0  0  0
    1.1849    0.9786    0.1831 C   0  0  0  0  0  0  0  0  0  0  0  0
    4.8616    2.9644    0.7562 C   0  0  0  0  0  0  0  0  0  0  0  0
   -7.5200   -1.3626   -0.0240 C   0  0  0  0  0  0  0  0  0  0  0  0
    3.6682    0.8467    0.3269 C   0  0  0  0  0  0  0  0  0  0  0  0
    3.4816   -3.1933    0.0595 C   0  0  0  0  0  0  0  0  0  0  0  0
   -3.7444    0.6786    0.0064 C   0  0  0  0  0  0  0  0  0  0  0  0
   -0.0139    1.6823    0.0694 C   0  0  0  0  0  0  0  0  0  0  0  0
   -6.2030   -0.6866   -0.0094 C   0  0  0  0  0  0  0  0  0  0  0  0
    2.4201    1.6166    0.1693 C   0  0  0  0  0  0  0  0  0  0  0  0
    2.4822    3.0109    0.0227 C   0  0  0  0  0  0  0  0  0  0  0  0
    3.8336    3.6914   -0.1188 C   0  0  2  0  0  0  0  0  0  0  0  0
    5.2286    4.0534   -1.7474 H   0  0  0  0  0  0  0  0  0  0  0  0
    4.3070    2.5604   -1.9357 H   0  0  0  0  0  0  0  0  0  0  0  0
    3.5323    4.1160   -2.2322 H   0  0  0  0  0  0  0  0  0  0  0  0
    3.1858    5.7673   -0.3636 H   0  0  0  0  0  0  0  0  0  0  0  0
    3.4443    5.2861    1.3166 H   0  0  0  0  0  0  0  0  0  0  0  0
    4.8185    5.5712    0.2494 H   0  0  0  0  0  0  0  0  0  0  0  0
   -2.6298    2.5177   -0.0680 H   0  0  0  0  0  0  0  0  0  0  0  0
   -1.1398   -0.1450    0.1608 H   0  0  0  0  0  0  0  0  0  0  0  0
    5.7228    0.9135    0.7734 H   0  0  0  0  0  0  0  0  0  0  0  0
    3.2345   -7.0503   -0.1584 H   0  0  0  0  0  0  0  0  0  0  0  0
    5.3483   -5.9808    0.5584 H   0  0  0  0  0  0  0  0  0  0  0  0
    1.2801   -5.6467   -0.7388 H   0  0  0  0  0  0  0  0  0  0  0  0
    5.5075   -3.5260    0.7003 H   0  0  0  0  0  0  0  0  0  0  0  0
    1.4343   -3.1920   -0.6010 H   0  0  0  0  0  0  0  0  0  0  0  0
   -4.9467    2.4525   -0.1491 H   0  0  0  0  0  0  0  0  0  0  0  0
   -2.8835   -1.2985    0.1634 H   0  0  0  0  0  0  0  0  0  0  0  0
   -0.8420    3.6659   -0.1469 H   0  0  0  0  0  0  0  0  0  0  0  0
   -7.0858    1.2675   -0.1682 H   0  0  0  0  0  0  0  0  0  0  0  0
   -4.9933   -2.4690    0.1488 H   0  0  0  0  0  0  0  0  0  0  0  0
    1.2969    4.7874   -0.1949 H   0  0  0  0  0  0  0  0  0  0  0  0
    1.1466   -0.0999    0.2885 H   0  0  0  0  0  0  0  0  0  0  0  0
    4.6950    3.2156    1.8131 H   0  0  0  0  0  0  0  0  0  0  0  0
    5.8626    3.3319    0.5185 H   0  0  0  0  0  0  0  0  0  0  0  0
   -8.3146   -3.0743    0.0715 H   0  0  0  0  0  0  0  0  0  0  0  0
 31  1  1  6
  1 32  1  0
  1 33  1  0
  1 34  1  0
  2 31  1  0
  2 35  1  0
  2 36  1  0
  2 37  1  0
  3 23  2  0
  4 23  1  0
  5  6  3  0
  5 24  1  0
  6 25  1  0
  7  8  2  0
  7 26  1  0
  7 38  1  0
  8 27  1  0
  8 39  1  0
  9 22  1  0
  9 24  2  0
  9 40  1  0
 10 11  2  0
 10 12  1  0
 10 41  1  0
 11 13  1  0
 11 42  1  0
 12 14  2  0
 12 43  1  0
 13 25  2  0
 13 44  1  0
 14 25  1  0
 14 45  1  0
 15 18  2  0
 15 26  1  0
 15 46  1  0
 16 19  1  0
 16 26  2  0
 16 47  1  0
 17 20  1  0
 17 27  2  0
 17 48  1  0
 18 28  1  0
 18 49  1  0
 19 28  2  0
 19 50  1  0
 20 30  2  0
 20 51  1  0
 21 27  1  0
 21 29  2  0
 21 52  1  0
 22 31  1  0
 22 53  1  0
 22 54  1  0
 23 28  1  0
 24 29  1  0
 29 30  1  0
 30 31  1  0
  4 55  1  0
M  END
