
     RDKit          3D

 34 35  0  0  0  0  0  0  0  0999 V2000
   -4.1909    1.4043   -0.2620 C   0  0  0  0  0  0  0  0  0  0  0  0
   -2.9435   -1.9025    0.1115 C   0  0  0  0  0  0  0  0  0  0  0  0
    7.3572    0.7738   -0.2199 C   0  0  0  0  0  0  0  0  0  0  0  0
    5.9219    1.1785    0.0836 C   0  0  0  0  0  0  0  0  0  0  0  0
    4.9366    0.0345   -0.1294 C   0  0  0  0  0  0  0  0  0  0  0  0
    3.5131    0.4724    0.1415 C   0  0  0  0  0  0  0  0  0  0  0  0
    1.3247   -0.4816    0.0838 C   0  0  0  0  0  0  0  0  0  0  0  0
    0.7194    0.7389    0.4313 C   0  0  0  0  0  0  0  0  0  0  0  0
   -0.6561    0.8385    0.5674 C   0  0  0  0  0  0  0  0  0  0  0  0
   -1.4419   -0.2900    0.3639 C   0  0  0  0  0  0  0  0  0  0  0  0
   -2.8497   -0.5934    0.4136 C   0  0  0  0  0  0  0  0  0  0  0  0
   -3.9603    0.3264    0.7690 C   0  0  0  0  0  0  0  0  0  0  0  0
   -0.8105   -1.4867    0.0218 C   0  0  0  0  0  0  0  0  0  0  0  0
    0.5546   -1.6240   -0.1269 C   0  0  0  0  0  0  0  0  0  0  0  0
   -3.5810    1.5202   -1.2932 O   0  0  0  0  0  0  0  0  0  0  0  0
   -5.1677    2.2231    0.1094 O   0  0  0  0  0  0  0  0  0  0  0  0
   -1.7265   -2.4670   -0.1316 O   0  0  0  0  0  0  0  0  0  0  0  0
   -3.7951   -2.5603    0.0337 H   0  0  0  0  0  0  0  0  0  0  0  0
    7.6763   -0.0558    0.4135 H   0  0  0  0  0  0  0  0  0  0  0  0
    7.4671    0.4566   -1.2584 H   0  0  0  0  0  0  0  0  0  0  0  0
    8.0466    1.6013   -0.0515 H   0  0  0  0  0  0  0  0  0  0  0  0
    5.8521    1.5319    1.1163 H   0  0  0  0  0  0  0  0  0  0  0  0
    5.6390    2.0260   -0.5478 H   0  0  0  0  0  0  0  0  0  0  0  0
    5.0158   -0.3303   -1.1578 H   0  0  0  0  0  0  0  0  0  0  0  0
    5.1976   -0.8009    0.5270 H   0  0  0  0  0  0  0  0  0  0  0  0
    3.4166    0.8380    1.1708 H   0  0  0  0  0  0  0  0  0  0  0  0
    3.2416    1.2966   -0.5284 H   0  0  0  0  0  0  0  0  0  0  0  0
    1.3189    1.6233    0.5955 H   0  0  0  0  0  0  0  0  0  0  0  0
   -1.0975    1.7893    0.8369 H   0  0  0  0  0  0  0  0  0  0  0  0
   -3.7686    0.8094    1.7325 H   0  0  0  0  0  0  0  0  0  0  0  0
   -4.8933   -0.2285    0.8977 H   0  0  0  0  0  0  0  0  0  0  0  0
    1.0148   -2.5669   -0.3933 H   0  0  0  0  0  0  0  0  0  0  0  0
   -5.3057    2.9038   -0.5663 H   0  0  0  0  0  0  0  0  0  0  0  0
    2.6546   -0.6383   -0.0679 O   0  0  0  0  0  0  0  0  0  0  0  0
 34  6  1  0
 34  7  1  0
  6  5  1  0
  8  7  2  0
  8  9  1  0
  7 14  1  0
  3  4  1  0
  4  5  1  0
  9 10  2  0
 14 13  2  0
 10 13  1  0
 10 11  1  0
 13 17  1  0
 11 12  1  0
 11  2  2  0
 12  1  1  0
 17  2  1  0
  1 15  2  0
  1 16  1  0
  2 18  1  0
  3 19  1  0
  3 20  1  0
  3 21  1  0
  4 22  1  0
  4 23  1  0
  5 24  1  0
  5 25  1  0
  6 26  1  0
  6 27  1  0
  8 28  1  0
  9 29  1  0
 12 30  1  0
 12 31  1  0
 14 32  1  0
 16 33  1  0
M  END
