
     RDKit          3D

 41 44  0  0  0  0  0  0  0  0999 V2000
   -4.8544    1.3459    0.2443 C   0  0  0  0  0  0  0  0  0  0  0  0
   -3.5336    0.8409   -0.2338 C   0  0  0  0  0  0  0  0  0  0  0  0
   -3.0451    1.3252   -1.4431 C   0  0  0  0  0  0  0  0  0  0  0  0
   -1.8211    0.8927   -1.9264 C   0  0  0  0  0  0  0  0  0  0  0  0
   -1.0549   -0.0165   -1.2065 C   0  0  0  0  0  0  0  0  0  0  0  0
    0.2527   -0.5136   -1.7638 C   0  0  0  0  0  0  0  0  0  0  0  0
    1.6405    0.6294   -0.0874 C   0  0  0  0  0  0  0  0  0  0  0  0
    1.3151    1.8840   -0.6055 C   0  0  0  0  0  0  0  0  0  0  0  0
    1.7005    3.0381    0.0553 C   0  0  0  0  0  0  0  0  0  0  0  0
    2.4290    2.9924    1.2377 C   0  0  0  0  0  0  0  0  0  0  0  0
    2.7667    1.7633    1.7707 C   0  0  0  0  0  0  0  0  0  0  0  0
    2.3533    0.6134    1.1137 C   0  0  0  0  0  0  0  0  0  0  0  0
    2.9677   -1.8896    0.3944 C   0  0  0  0  0  0  0  0  0  0  0  0
    3.8998   -2.9115    0.3752 C   0  0  0  0  0  0  0  0  0  0  0  0
    3.9656   -3.7018   -0.7578 C   0  0  0  0  0  0  0  0  0  0  0  0
    3.0791   -3.4278   -1.7896 C   0  0  0  0  0  0  0  0  0  0  0  0
    2.1607   -1.6341   -0.7197 C   0  0  0  0  0  0  0  0  0  0  0  0
   -1.5371   -0.4876    0.0101 C   0  0  0  0  0  0  0  0  0  0  0  0
   -2.7638   -0.0651    0.4941 C   0  0  0  0  0  0  0  0  0  0  0  0
   -5.5243    0.4743    1.0308 N   0  0  0  0  0  0  0  0  0  0  0  0
    1.2955   -0.5548   -0.7428 N   0  0  0  0  0  0  0  0  0  0  0  0
    2.2174   -2.4207   -1.7803 N   0  0  0  0  0  0  0  0  0  0  0  0
   -5.2701    2.4541   -0.0395 O   0  0  0  0  0  0  0  0  0  0  0  0
   -6.8049    0.7717    1.3903 O   0  0  0  0  0  0  0  0  0  0  0  0
    2.7204   -0.9411    1.8443 S   0  0  0  0  0  0  0  0  0  0  0  0
   -3.6234    2.0390   -2.0141 H   0  0  0  0  0  0  0  0  0  0  0  0
   -1.4590    1.2748   -2.8734 H   0  0  0  0  0  0  0  0  0  0  0  0
    0.1258   -1.5300   -2.1310 H   0  0  0  0  0  0  0  0  0  0  0  0
    0.5654    0.0798   -2.6270 H   0  0  0  0  0  0  0  0  0  0  0  0
    1.4383    3.9944   -0.3762 H   0  0  0  0  0  0  0  0  0  0  0  0
    2.7256    3.9023    1.7390 H   0  0  0  0  0  0  0  0  0  0  0  0
    3.3297    1.6924    2.6920 H   0  0  0  0  0  0  0  0  0  0  0  0
    4.5342   -3.0977    1.2316 H   0  0  0  0  0  0  0  0  0  0  0  0
    4.6645   -4.5213   -0.8308 H   0  0  0  0  0  0  0  0  0  0  0  0
    3.0722   -4.0474   -2.6780 H   0  0  0  0  0  0  0  0  0  0  0  0
   -0.9541   -1.1896    0.5934 H   0  0  0  0  0  0  0  0  0  0  0  0
   -3.0998   -0.4361    1.4540 H   0  0  0  0  0  0  0  0  0  0  0  0
   -5.3300   -0.5168    0.9948 H   0  0  0  0  0  0  0  0  0  0  0  0
   -6.7608    1.0608    2.3106 H   0  0  0  0  0  0  0  0  0  0  0  0
    1.4770   -1.3473    2.1850 H   0  0  0  0  0  0  0  0  0  0  0  0
    0.7782    1.9763   -1.5372 H   0  0  0  0  0  0  0  0  0  0  0  0
 16 15  2  0
 16 22  1  0
 15 14  1  0
 22 17  2  0
 14 13  2  0
 17 13  1  0
 17 21  1  0
  6 21  1  0
  6  5  1  0
 13 25  1  0
 21  7  2  0
 18  5  2  0
 18 19  1  0
  5  4  1  0
  7  8  1  0
  7 12  1  0
 25 12  2  0
 19  2  2  0
  4  3  2  0
  8  9  2  0
 12 11  1  0
  2  3  1  0
  2  1  1  0
  9 10  1  0
 11 10  2  0
  1 23  2  0
  1 20  1  0
 20 24  1  0
  3 26  1  0
  4 27  1  0
  6 28  1  0
  6 29  1  0
  8 41  1  0
  9 30  1  0
 10 31  1  0
 11 32  1  0
 14 33  1  0
 15 34  1  0
 16 35  1  0
 18 36  1  0
 19 37  1  0
 20 38  1  0
 24 39  1  0
 25 40  1  6
M  CHG  1  21   1
M  END
