
     RDKit          3D

 16 17  0  0  0  0  0  0  0  0999 V2000
    3.6594   -3.3314   -0.9499 Br  0  0  0  0  0  0  0  0  0  0  0  0
    2.6776   -2.1126    0.0682 C   0  0  0  0  0  0  0  0  0  0  0  0
    1.5495   -1.4426   -0.4196 C   0  0  0  0  0  0  0  0  0  0  0  0
    0.9878   -1.7690   -2.1735 Br  0  0  0  0  0  0  0  0  0  0  0  0
    3.0809   -1.8605    1.3617 C   0  0  0  0  0  0  0  0  0  0  0  0
    4.1178   -2.3452    2.1103 N   0  0  0  0  0  0  0  0  0  0  0  0
    4.1126   -1.7880    3.3703 C   0  0  0  0  0  0  0  0  0  0  0  0
    4.8885   -2.0018    4.2742 O   0  0  0  0  0  0  0  0  0  0  0  0
    3.0306   -0.9346    3.3782 N   0  0  0  0  0  0  0  0  0  0  0  0
    2.3857   -0.9581    2.1723 C   0  0  0  0  0  0  0  0  0  0  0  0
    1.2725   -0.2935    1.7041 C   0  0  0  0  0  0  0  0  0  0  0  0
    0.3962    0.8934    2.8485 Br  0  0  0  0  0  0  0  0  0  0  0  0
    0.8522   -0.5410    0.3920 C   0  0  0  0  0  0  0  0  0  0  0  0
   -0.6561    0.3507   -0.2621 Br  0  0  0  0  0  0  0  0  0  0  0  0
    4.8077   -3.0176    1.8107 H   0  0  0  0  0  0  0  0  0  0  0  0
    2.7788   -0.3777    4.1809 H   0  0  0  0  0  0  0  0  0  0  0  0
  1  2  1  0
  2  5  2  0
  2  3  1  0
  3 13  2  0
  3  4  1  0
  5 10  1  0
  5  6  1  0
  6  7  1  0
  6 15  1  0
  7  9  1  0
  7  8  2  0
  9 10  1  0
  9 16  1  0
 10 11  2  0
 11 12  1  0
 11 13  1  0
 13 14  1  0
M  END
