
     RDKit          3D

 57 60  0  0  0  0  0  0  0  0999 V2000
    0.9738   -3.4209   -3.2164 C   0  0  0  0  0  0  0  0  0  0  0  0
   -6.2430   -3.1624    1.4856 C   0  0  0  0  0  0  0  0  0  0  0  0
    0.6088    4.5557    1.7689 C   0  0  0  0  0  0  0  0  0  0  0  0
   -2.2663    3.4388   -2.2922 C   0  0  0  0  0  0  0  0  0  0  0  0
    7.1267   -1.2164    0.9181 C   0  0  0  0  0  0  0  0  0  0  0  0
    6.8344    0.1082    0.9258 C   0  0  0  0  0  0  0  0  0  0  0  0
    5.8918   -1.8900    0.7163 C   0  0  0  0  0  0  0  0  0  0  0  0
   -3.8547   -3.3302   -0.2211 C   0  0  0  0  0  0  0  0  0  0  0  0
   -2.7470   -3.4430   -1.0440 C   0  0  0  0  0  0  0  0  0  0  0  0
    0.5018   -0.6400    0.1117 C   0  0  0  0  0  0  0  0  0  0  0  0
    1.0653    1.7026    0.0742 C   0  0  0  0  0  0  0  0  0  0  0  0
   -1.2189    1.0234   -0.1881 C   0  0  0  0  0  0  0  0  0  0  0  0
   -2.9958   -1.2788    0.6616 C   0  0  0  0  0  0  0  0  0  0  0  0
   -0.3846   -3.6317   -2.5919 C   0  0  0  0  0  0  0  0  0  0  0  0
    3.4961   -1.0370    0.4099 C   0  0  0  0  0  0  0  0  0  0  0  0
    1.4581    0.3685    0.1923 C   0  0  0  0  0  0  0  0  0  0  0  0
   -4.0016   -2.2493    0.6426 C   0  0  0  0  0  0  0  0  0  0  0  0
   -0.2941    4.5493    0.5878 C   0  0  0  0  0  0  0  0  0  0  0  0
   -0.8378   -0.3094   -0.0869 C   0  0  0  0  0  0  0  0  0  0  0  0
   -0.2686    2.0408   -0.1090 C   0  0  0  0  0  0  0  0  0  0  0  0
   -1.5158    3.9967   -1.1440 C   0  0  0  0  0  0  0  0  0  0  0  0
    4.9449   -0.9201    0.6171 C   0  0  0  0  0  0  0  0  0  0  0  0
   -1.7535   -2.4659   -1.0168 C   0  0  0  0  0  0  0  0  0  0  0  0
   -1.8735   -1.3664   -0.1414 C   0  0  0  0  0  0  0  0  0  0  0  0
   -0.6711    3.4433   -0.2321 C   0  0  0  0  0  0  0  0  0  0  0  0
   -0.8752    5.6414    0.1873 N   0  0  0  0  0  0  0  0  0  0  0  0
   -5.2712   -1.1495    2.2848 O   0  0  0  0  0  0  0  0  0  0  0  0
    2.9896   -2.1381    0.2744 O   0  0  0  0  0  0  0  0  0  0  0  0
   -0.6713   -2.4870   -1.7947 O   0  0  0  0  0  0  0  0  0  0  0  0
    5.5173    0.2980    0.7444 O   0  0  0  0  0  0  0  0  0  0  0  0
   -1.6340    5.3015   -0.8956 O   0  0  0  0  0  0  0  0  0  0  0  0
    1.7421   -3.2972   -2.4528 H   0  0  0  0  0  0  0  0  0  0  0  0
    1.2318   -4.2890   -3.8220 H   0  0  0  0  0  0  0  0  0  0  0  0
    0.9827   -2.5448   -3.8647 H   0  0  0  0  0  0  0  0  0  0  0  0
   -6.6781   -3.2284    0.4869 H   0  0  0  0  0  0  0  0  0  0  0  0
   -5.8311   -4.1453    1.7201 H   0  0  0  0  0  0  0  0  0  0  0  0
   -7.0339   -2.9348    2.1963 H   0  0  0  0  0  0  0  0  0  0  0  0
    1.6438    4.3807    1.4745 H   0  0  0  0  0  0  0  0  0  0  0  0
    0.5640    5.5127    2.2852 H   0  0  0  0  0  0  0  0  0  0  0  0
    0.3331    3.7694    2.4714 H   0  0  0  0  0  0  0  0  0  0  0  0
   -3.3005    3.2212   -2.0201 H   0  0  0  0  0  0  0  0  0  0  0  0
   -2.2805    4.1347   -3.1302 H   0  0  0  0  0  0  0  0  0  0  0  0
   -1.8070    2.5095   -2.6223 H   0  0  0  0  0  0  0  0  0  0  0  0
    7.4388    0.9925    1.0463 H   0  0  0  0  0  0  0  0  0  0  0  0
    5.7281   -2.9533    0.6559 H   0  0  0  0  0  0  0  0  0  0  0  0
   -4.6046   -4.1080   -0.2717 H   0  0  0  0  0  0  0  0  0  0  0  0
   -2.6769   -4.2913   -1.7105 H   0  0  0  0  0  0  0  0  0  0  0  0
    0.7888   -1.6718    0.2153 H   0  0  0  0  0  0  0  0  0  0  0  0
    1.8184    2.4810    0.1028 H   0  0  0  0  0  0  0  0  0  0  0  0
   -2.2643    1.2715   -0.3238 H   0  0  0  0  0  0  0  0  0  0  0  0
   -3.0837   -0.4386    1.3390 H   0  0  0  0  0  0  0  0  0  0  0  0
   -1.1529   -3.7571   -3.3613 H   0  0  0  0  0  0  0  0  0  0  0  0
   -0.3858   -4.5309   -1.9682 H   0  0  0  0  0  0  0  0  0  0  0  0
   -5.1751   -2.1023    1.5356 C   0  0  0  0  0  0  0  0  0  0  0  0
    2.8225    0.1410    0.3909 N   0  0  0  0  0  0  0  0  0  0  0  0
    8.1020   -1.6568    1.0430 H   0  0  0  0  0  0  0  0  0  0  0  0
    3.3721    0.9799    0.5055 H   0  0  0  0  0  0  0  0  0  0  0  0
 31 21  1  0
 31 26  1  0
  4 21  1  0
 21 25  2  0
 26 18  2  0
  1 14  1  0
 14 29  1  0
 18 25  1  0
 18  3  1  0
 25 20  1  0
 29 23  1  0
 20 12  2  0
 20 11  1  0
 12 19  1  0
 23  9  1  0
 23 24  2  0
  9  8  2  0
 11 16  2  0
 19 24  1  0
 19 10  2  0
 24 13  1  0
  8 17  1  0
 16 10  1  0
 16 55  1  0
 13 17  2  0
 17 54  1  0
 55 15  1  0
 28 15  2  0
 15 22  1  0
 54 27  2  0
 54  2  1  0
 22  7  2  0
 22 30  1  0
  7  5  1  0
 30  6  1  0
  5  6  2  0
  1 32  1  0
  1 33  1  0
  1 34  1  0
  2 35  1  0
  2 36  1  0
  2 37  1  0
  3 38  1  0
  3 39  1  0
  3 40  1  0
  4 41  1  0
  4 42  1  0
  4 43  1  0
  5 56  1  0
  6 44  1  0
  7 45  1  0
  8 46  1  0
  9 47  1  0
 10 48  1  0
 11 49  1  0
 12 50  1  0
 13 51  1  0
 14 52  1  0
 14 53  1  0
 55 57  1  0
M  END
