
     RDKit          3D

 62 65  0  0  0  0  0  0  0  0999 V2000
   -1.9514    0.7612   -0.9295 C   0  0  0  0  0  0  0  0  0  0  0  0
   -1.0904   -0.3514   -0.3404 C   0  0  2  0  0  0  0  0  0  0  0  0
   -1.5934   -0.7468    1.0484 C   0  0  0  0  0  0  0  0  0  0  0  0
   -3.0637   -1.1489    1.0157 C   0  0  0  0  0  0  0  0  0  0  0  0
    3.5218   -2.2973   -0.1501 C   0  0  0  0  0  0  0  0  0  0  0  0
    4.6965   -3.0907   -0.0869 C   0  0  0  0  0  0  0  0  0  0  0  0
    5.8954   -2.4960    0.0536 C   0  0  0  0  0  0  0  0  0  0  0  0
    6.0251   -1.0543    0.1418 C   0  0  0  0  0  0  0  0  0  0  0  0
    4.9431    1.1621    0.1603 C   0  0  2  0  0  0  0  0  0  0  0  0
    5.6268    1.8164   -1.0507 C   0  0  0  0  0  0  0  0  0  0  0  0
    6.1616    3.1246   -0.4747 C   0  0  0  0  0  0  0  0  0  0  0  0
    5.6359    1.7301    1.4245 C   0  0  0  0  0  0  0  0  0  0  0  0
    3.6194   -0.8938   -0.0611 C   0  0  0  0  0  0  0  0  0  0  0  0
    1.3590   -0.7239   -0.2536 C   0  0  0  0  0  0  0  0  0  0  0  0
   -8.8929    1.3964   -1.2551 C   0  0  0  0  0  0  0  0  0  0  0  0
   -8.7619    0.7655    0.1282 C   0  0  1  0  0  0  0  0  0  0  0  0
   -9.9769   -0.0878    0.4634 C   0  0  0  0  0  0  0  0  0  0  0  0
   -7.5677   -0.0515    0.2458 N   0  0  0  0  0  0  0  0  0  0  0  0
   -6.1518    1.6678    0.6826 O   0  0  0  0  0  0  0  0  0  0  0  0
   -5.3147   -0.4300    0.4265 N   0  0  0  0  0  0  0  0  0  0  0  0
   -3.9238   -0.0310    0.4357 C   0  0  2  0  0  0  0  0  0  0  0  0
   -3.4224    0.3632   -0.9540 C   0  0  0  0  0  0  0  0  0  0  0  0
    0.2921    0.0821   -0.3147 N   0  0  0  0  0  0  0  0  0  0  0  0
    1.1547   -2.0516   -0.3493 N   0  0  0  0  0  0  0  0  0  0  0  0
    2.2307   -2.8007   -0.2977 C   0  0  0  0  0  0  0  0  0  0  0  0
    7.1089   -0.5024    0.2622 O   0  0  0  0  0  0  0  0  0  0  0  0
    4.8511   -0.3031    0.0864 N   0  0  0  0  0  0  0  0  0  0  0  0
    6.6886    2.7122    0.9004 C   0  0  0  0  0  0  0  0  0  0  0  0
    2.5456   -0.1281   -0.1156 N   0  0  0  0  0  0  0  0  0  0  0  0
   -1.8311    1.6697   -0.3274 H   0  0  0  0  0  0  0  0  0  0  0  0
   -1.6088    1.0013   -1.9385 H   0  0  0  0  0  0  0  0  0  0  0  0
   -1.1567   -1.2245   -0.9950 H   0  0  0  0  0  0  0  0  0  0  0  0
   -0.9888   -1.5685    1.4376 H   0  0  0  0  0  0  0  0  0  0  0  0
   -1.4573    0.1001    1.7295 H   0  0  0  0  0  0  0  0  0  0  0  0
   -3.1805   -2.0545    0.4083 H   0  0  0  0  0  0  0  0  0  0  0  0
   -3.4061   -1.3966    2.0228 H   0  0  0  0  0  0  0  0  0  0  0  0
    4.6124   -4.1688   -0.1520 H   0  0  0  0  0  0  0  0  0  0  0  0
    6.8120   -3.0667    0.1045 H   0  0  0  0  0  0  0  0  0  0  0  0
    3.9117    1.4972    0.1719 H   0  0  0  0  0  0  0  0  0  0  0  0
    6.4547    1.2127   -1.4203 H   0  0  0  0  0  0  0  0  0  0  0  0
    4.9257    1.9575   -1.8745 H   0  0  0  0  0  0  0  0  0  0  0  0
    6.9217    3.5861   -1.1063 H   0  0  0  0  0  0  0  0  0  0  0  0
    5.3487    3.8482   -0.3625 H   0  0  0  0  0  0  0  0  0  0  0  0
    4.8896    2.2596    2.0198 H   0  0  0  0  0  0  0  0  0  0  0  0
    6.0630    0.9638    2.0682 H   0  0  0  0  0  0  0  0  0  0  0  0
   -8.9846    0.6276   -2.0251 H   0  0  0  0  0  0  0  0  0  0  0  0
   -9.7797    2.0302   -1.3068 H   0  0  0  0  0  0  0  0  0  0  0  0
   -8.0263    2.0146   -1.4901 H   0  0  0  0  0  0  0  0  0  0  0  0
   -8.6868    1.5634    0.8694 H   0  0  0  0  0  0  0  0  0  0  0  0
  -10.0923   -0.9055   -0.2521 H   0  0  0  0  0  0  0  0  0  0  0  0
   -9.8982   -0.5181    1.4623 H   0  0  0  0  0  0  0  0  0  0  0  0
  -10.8853    0.5132    0.4257 H   0  0  0  0  0  0  0  0  0  0  0  0
   -7.6421   -1.0100   -0.0575 H   0  0  0  0  0  0  0  0  0  0  0  0
   -5.5125   -1.3624    0.0977 H   0  0  0  0  0  0  0  0  0  0  0  0
   -3.8364    0.8376    1.0932 H   0  0  0  0  0  0  0  0  0  0  0  0
   -4.0238    1.1886   -1.3407 H   0  0  0  0  0  0  0  0  0  0  0  0
   -3.5650   -0.4812   -1.6374 H   0  0  0  0  0  0  0  0  0  0  0  0
    0.4741    1.0615   -0.1570 H   0  0  0  0  0  0  0  0  0  0  0  0
    2.0868   -3.8747   -0.3726 H   0  0  0  0  0  0  0  0  0  0  0  0
    7.6492    2.2062    0.7876 H   0  0  0  0  0  0  0  0  0  0  0  0
    6.8399    3.5598    1.5700 H   0  0  0  0  0  0  0  0  0  0  0  0
   -6.3326    0.4753    0.4496 C   0  0  0  0  0  0  0  0  0  0  0  0
  6  7  2  0
  6  5  1  0
  7  8  1  0
 25  5  2  0
 25 24  1  0
  5 13  1  0
 24 14  2  0
  8 26  2  0
  8 27  1  0
 13 27  1  0
 13 29  2  0
 27  9  1  0
 14 29  1  0
 14 23  1  0
 12  9  1  0
 12 28  1  0
 23  2  1  0
  3  2  1  0
  3  4  1  0
  9 10  1  0
  2  1  1  0
  4 21  1  0
 28 11  1  0
 10 11  1  0
 15 16  1  0
  1 22  1  0
 21 22  1  0
 21 20  1  0
 17 16  1  0
 18 16  1  0
 18 62  1  0
 20 62  1  0
 62 19  2  0
  1 30  1  0
  1 31  1  0
  2 32  1  6
  3 33  1  0
  3 34  1  0
  4 35  1  0
  4 36  1  0
  6 37  1  0
  7 38  1  0
  9 39  1  1
 10 40  1  0
 10 41  1  0
 11 42  1  0
 11 43  1  0
 12 44  1  0
 12 45  1  0
 15 46  1  0
 15 47  1  0
 15 48  1  0
 16 49  1  1
 17 50  1  0
 17 51  1  0
 17 52  1  0
 18 53  1  0
 20 54  1  0
 21 55  1  1
 22 56  1  0
 22 57  1  0
 23 58  1  0
 25 59  1  0
 28 60  1  0
 28 61  1  0
M  END
