
     RDKit          3D

 19 18  0  0  0  0  0  0  0  0999 V2000
    1.4195    0.0353   -0.0107 C   0  0  0  0  0  0  0  0  0  0  0  0
    0.2223    0.6384   -0.0069 N   0  0  0  0  0  0  0  0  0  0  0  0
    1.6254   -1.1639   -0.0078 O   0  0  0  0  0  0  0  0  0  0  0  0
   -1.0801   -0.0350    0.0025 C   0  0  1  0  0  0  0  0  0  0  0  0
   -1.2639   -0.8895   -1.2522 C   0  0  0  0  0  0  0  0  0  0  0  0
   -1.2492   -0.8826    1.2639 C   0  0  0  0  0  0  0  0  0  0  0  0
   -2.1258    1.0787    0.0055 C   0  0  0  0  0  0  0  0  0  0  0  0
    0.2161    1.6460   -0.0156 H   0  0  0  0  0  0  0  0  0  0  0  0
   -0.5406   -1.7017   -1.3015 H   0  0  0  0  0  0  0  0  0  0  0  0
   -2.2620   -1.3303   -1.2592 H   0  0  0  0  0  0  0  0  0  0  0  0
   -1.1622   -0.2813   -2.1527 H   0  0  0  0  0  0  0  0  0  0  0  0
   -1.1381   -0.2692    2.1597 H   0  0  0  0  0  0  0  0  0  0  0  0
   -2.2467   -1.3241    1.2842 H   0  0  0  0  0  0  0  0  0  0  0  0
   -0.5246   -1.6939    1.3099 H   0  0  0  0  0  0  0  0  0  0  0  0
   -2.0374    1.7086   -0.8820 H   0  0  0  0  0  0  0  0  0  0  0  0
   -3.1276    0.6503    0.0121 H   0  0  0  0  0  0  0  0  0  0  0  0
   -2.0277    1.7140    0.8880 H   0  0  0  0  0  0  0  0  0  0  0  0
    2.4128    0.9393   -0.0181 O   0  0  0  0  0  0  0  0  0  0  0  0
    3.2579    0.4718   -0.0238 H   0  0  0  0  0  0  0  0  0  0  0  0
  3  1  2  0
  1  2  1  0
  5  4  1  0
  4  2  1  6
  4  6  1  0
  4  7  1  0
  2  8  1  0
  5  9  1  0
  5 10  1  0
  5 11  1  0
  6 12  1  0
  6 13  1  0
  6 14  1  0
  7 15  1  0
  7 16  1  0
  7 17  1  0
  1 18  1  0
 18 19  1  0
M  END
