
     RDKit          3D

 51 51  0  0  0  0  0  0  0  0999 V2000
    9.4764   -2.7550    0.8535 C   0  0  0  0  0  0  0  0  0  0  0  0
    7.9565   -2.6799    0.8973 C   0  0  0  0  0  0  0  0  0  0  0  0
    7.3858   -1.6565   -0.0769 C   0  0  0  0  0  0  0  0  0  0  0  0
    5.8693   -1.5393    0.0027 C   0  0  0  0  0  0  0  0  0  0  0  0
    5.3006   -0.5448   -1.0119 C   0  0  0  0  0  0  0  0  0  0  0  0
    3.8197   -0.4223   -0.9111 C   0  0  0  0  0  0  0  0  0  0  0  0
    3.1601    0.7284   -0.7170 C   0  0  0  0  0  0  0  0  0  0  0  0
    1.7205    0.7590   -0.5955 C   0  0  0  0  0  0  0  0  0  0  0  0
    0.9259    1.8330   -0.4444 C   0  0  0  0  0  0  0  0  0  0  0  0
    1.3354    3.2556   -0.4217 C   0  0  0  0  0  0  0  0  0  0  0  0
    2.4655    3.7112   -0.4615 O   0  0  0  0  0  0  0  0  0  0  0  0
    0.0912    4.0383   -0.3461 C   0  0  0  0  0  0  0  0  0  0  0  0
   -0.9620    3.2186   -0.2948 C   0  0  0  0  0  0  0  0  0  0  0  0
   -0.5753    1.7694   -0.2997 C   0  0  2  0  0  0  0  0  0  0  0  0
   -1.0113    1.0382    0.9860 C   0  0  0  0  0  0  0  0  0  0  0  0
   -2.4955    0.9707    1.1589 C   0  0  0  0  0  0  0  0  0  0  0  0
   -3.1977   -0.1552    1.2480 C   0  0  0  0  0  0  0  0  0  0  0  0
   -4.6805   -0.2164    1.4356 C   0  0  0  0  0  0  0  0  0  0  0  0
   -5.3766   -1.0359    0.3495 C   0  0  0  0  0  0  0  0  0  0  0  0
   -6.8811   -1.0684    0.5609 C   0  0  0  0  0  0  0  0  0  0  0  0
   -7.6216   -1.8746   -0.4690 C   0  0  0  0  0  0  0  0  0  0  0  0
   -7.1151   -2.4455   -1.4029 O   0  0  0  0  0  0  0  0  0  0  0  0
   -8.9314   -1.8912   -0.2361 O   0  0  0  0  0  0  0  0  0  0  0  0
    9.9273   -1.7952    1.1132 H   0  0  0  0  0  0  0  0  0  0  0  0
    9.8601   -3.4995    1.5521 H   0  0  0  0  0  0  0  0  0  0  0  0
    9.8303   -3.0244   -0.1434 H   0  0  0  0  0  0  0  0  0  0  0  0
    7.5350   -3.6646    0.6736 H   0  0  0  0  0  0  0  0  0  0  0  0
    7.6309   -2.4335    1.9125 H   0  0  0  0  0  0  0  0  0  0  0  0
    7.8352   -0.6775    0.1228 H   0  0  0  0  0  0  0  0  0  0  0  0
    7.6789   -1.9235   -1.0981 H   0  0  0  0  0  0  0  0  0  0  0  0
    5.4156   -2.5219   -0.1626 H   0  0  0  0  0  0  0  0  0  0  0  0
    5.5794   -1.2323    1.0123 H   0  0  0  0  0  0  0  0  0  0  0  0
    5.7644    0.4357   -0.8753 H   0  0  0  0  0  0  0  0  0  0  0  0
    5.5676   -0.8822   -2.0200 H   0  0  0  0  0  0  0  0  0  0  0  0
    3.2492   -1.3464   -0.9870 H   0  0  0  0  0  0  0  0  0  0  0  0
    3.7136    1.6551   -0.6391 H   0  0  0  0  0  0  0  0  0  0  0  0
    1.2357   -0.2152   -0.6233 H   0  0  0  0  0  0  0  0  0  0  0  0
    0.0666    5.1192   -0.3373 H   0  0  0  0  0  0  0  0  0  0  0  0
   -1.9936    3.5421   -0.2448 H   0  0  0  0  0  0  0  0  0  0  0  0
   -1.0418    1.2646   -1.1535 H   0  0  0  0  0  0  0  0  0  0  0  0
   -0.5979    0.0274    0.9677 H   0  0  0  0  0  0  0  0  0  0  0  0
   -0.5581    1.5508    1.8410 H   0  0  0  0  0  0  0  0  0  0  0  0
   -3.0257    1.9186    1.2280 H   0  0  0  0  0  0  0  0  0  0  0  0
   -2.6766   -1.1087    1.1800 H   0  0  0  0  0  0  0  0  0  0  0  0
   -4.9079   -0.6594    2.4119 H   0  0  0  0  0  0  0  0  0  0  0  0
   -5.0878    0.7984    1.4548 H   0  0  0  0  0  0  0  0  0  0  0  0
   -5.1454   -0.6104   -0.6298 H   0  0  0  0  0  0  0  0  0  0  0  0
   -4.9789   -2.0537    0.3489 H   0  0  0  0  0  0  0  0  0  0  0  0
   -7.1238   -1.4707    1.5496 H   0  0  0  0  0  0  0  0  0  0  0  0
   -7.2894   -0.0527    0.5531 H   0  0  0  0  0  0  0  0  0  0  0  0
   -9.3821   -2.4083   -0.9203 H   0  0  0  0  0  0  0  0  0  0  0  0
  1  2  1  0
  1 24  1  0
  1 25  1  0
  1 26  1  0
  2  3  1  0
  2 27  1  0
  2 28  1  0
  3  4  1  0
  3 29  1  0
  3 30  1  0
  4  5  1  0
  4 31  1  0
  4 32  1  0
  5  6  1  0
  5 33  1  0
  5 34  1  0
  6  7  2  0
  6 35  1  0
  7  8  1  0
  7 36  1  0
  8  9  2  0
  8 37  1  0
  9 10  1  0
  9 14  1  0
 10 11  2  0
 12 13  2  0
 12 38  1  0
 13 14  1  0
 13 39  1  0
 14 15  1  0
 14 40  1  6
 15 16  1  0
 15 41  1  0
 15 42  1  0
 16 17  2  0
 16 43  1  0
 17 18  1  0
 17 44  1  0
 18 19  1  0
 18 45  1  0
 18 46  1  0
 19 20  1  0
 19 47  1  0
 19 48  1  0
 20 21  1  0
 20 49  1  0
 20 50  1  0
 21 22  2  0
 21 23  1  0
 12 10  1  0
 23 51  1  0
M  END
