
     RDKit          3D

 38 40  0  0  0  0  0  0  0  0999 V2000
    2.6604   -1.2187   -1.2335 C   0  0  0  0  0  0  0  0  0  0  0  0
    2.5077   -0.2688   -0.2253 C   0  0  0  0  0  0  0  0  0  0  0  0
    3.5796   -0.0411    0.6477 C   0  0  0  0  0  0  0  0  0  0  0  0
    1.2252    0.4549   -0.1029 C   0  0  0  0  0  0  0  0  0  0  0  0
    0.0122   -0.2526   -0.0910 C   0  0  0  0  0  0  0  0  0  0  0  0
   -1.0393    1.8648    0.0021 C   0  0  0  0  0  0  0  0  0  0  0  0
    1.2595    1.7689   -0.0321 N   0  0  0  0  0  0  0  0  0  0  0  0
   -3.9796   -1.7934   -0.8579 C   0  0  0  0  0  0  0  0  0  0  0  0
   -3.2074    0.0338    1.2048 C   0  0  0  0  0  0  0  0  0  0  0  0
    4.7674   -0.7516    0.4854 C   0  0  0  0  0  0  0  0  0  0  0  0
   -2.5360   -1.4845   -0.5289 C   0  0  0  0  0  0  0  0  0  0  0  0
   -4.6694   -0.2280    0.9286 C   0  0  0  0  0  0  0  0  0  0  0  0
    4.8976   -1.6844   -0.5313 C   0  0  0  0  0  0  0  0  0  0  0  0
    3.8414   -1.9257   -1.3983 C   0  0  0  0  0  0  0  0  0  0  0  0
   -1.1638    0.4480   -0.0222 C   0  0  0  0  0  0  0  0  0  0  0  0
    0.1400    2.4601    0.0110 N   0  0  0  0  0  0  0  0  0  0  0  0
   -2.1468    2.6610    0.0411 N   0  0  0  0  0  0  0  0  0  0  0  0
   -2.4329   -0.1294   -0.0225 N   0  0  0  0  0  0  0  0  0  0  0  0
   -4.8370   -1.5850    0.3405 N   0  0  0  0  0  0  0  0  0  0  0  0
    3.4188    0.8477    1.6442 O   0  0  0  0  0  0  0  0  0  0  0  0
    1.8360   -1.3948   -1.9144 H   0  0  0  0  0  0  0  0  0  0  0  0
    0.0240   -1.3346   -0.1130 H   0  0  0  0  0  0  0  0  0  0  0  0
   -4.0992   -2.8261   -1.1756 H   0  0  0  0  0  0  0  0  0  0  0  0
   -3.1148    1.0495    1.5846 H   0  0  0  0  0  0  0  0  0  0  0  0
   -2.8417   -0.6392    1.9922 H   0  0  0  0  0  0  0  0  0  0  0  0
    5.5932   -0.5764    1.1662 H   0  0  0  0  0  0  0  0  0  0  0  0
   -2.1440   -2.2278    0.1797 H   0  0  0  0  0  0  0  0  0  0  0  0
   -1.9643   -1.5791   -1.4519 H   0  0  0  0  0  0  0  0  0  0  0  0
   -5.2599   -0.1869    1.8402 H   0  0  0  0  0  0  0  0  0  0  0  0
   -5.0717    0.4819    0.2083 H   0  0  0  0  0  0  0  0  0  0  0  0
    5.8296   -2.2238   -0.6401 H   0  0  0  0  0  0  0  0  0  0  0  0
    3.9352   -2.6501   -2.1956 H   0  0  0  0  0  0  0  0  0  0  0  0
   -2.9606    2.3054   -0.4381 H   0  0  0  0  0  0  0  0  0  0  0  0
   -1.9704    3.6354   -0.1503 H   0  0  0  0  0  0  0  0  0  0  0  0
   -5.8152   -1.7335    0.0910 H   0  0  0  0  0  0  0  0  0  0  0  0
   -4.6296   -2.2952    1.0449 H   0  0  0  0  0  0  0  0  0  0  0  0
    4.2167    0.8850    2.1839 H   0  0  0  0  0  0  0  0  0  0  0  0
   -4.3554   -1.1328   -1.6366 H   0  0  0  0  0  0  0  0  0  0  0  0
 11  8  1  0
 11 18  1  0
 20  3  1  0
  8 19  1  0
 10  3  2  0
 10 13  1  0
  3  2  1  0
 13 14  2  0
  2  1  2  0
  2  4  1  0
 14  1  1  0
  4  7  1  0
  4  5  2  0
  7 16  2  0
 16  6  1  0
  5 15  1  0
  6 15  2  0
  6 17  1  0
 15 18  1  0
 18  9  1  0
 19 12  1  0
  9 12  1  0
  1 21  1  0
  5 22  1  0
  8 38  1  0
  8 23  1  0
  9 24  1  0
  9 25  1  0
 10 26  1  0
 11 27  1  0
 11 28  1  0
 12 29  1  0
 12 30  1  0
 13 31  1  0
 14 32  1  0
 17 33  1  0
 17 34  1  0
 19 35  1  0
 19 36  1  0
 20 37  1  0
M  CHG  1  19   1
M  END
