
     RDKit          3D

 33 33  0  0  0  0  0  0  0  0999 V2000
   -3.2570    0.1177   -0.5847 C   0  0  0  0  0  0  0  0  0  0  0  0
   -2.9279   -0.2640    0.7079 C   0  0  0  0  0  0  0  0  0  0  0  0
   -1.8146   -1.0681    0.9051 C   0  0  0  0  0  0  0  0  0  0  0  0
   -1.0569   -1.4866   -0.1763 C   0  0  0  0  0  0  0  0  0  0  0  0
   -1.3987   -1.1099   -1.4701 C   0  0  0  0  0  0  0  0  0  0  0  0
   -2.5009   -0.3040   -1.6723 C   0  0  0  0  0  0  0  0  0  0  0  0
   -4.3326    0.9016   -0.9237 O   0  0  0  0  0  0  0  0  0  0  0  0
   -5.0352    1.6129   -0.0283 C   0  0  1  0  0  0  0  0  0  0  0  0
   -4.2662    2.4033    0.7164 F   0  0  0  0  0  0  0  0  0  0  0  0
   -5.8797    2.3676   -0.7087 F   0  0  0  0  0  0  0  0  0  0  0  0
   -5.7410    0.8421    0.7987 F   0  0  0  0  0  0  0  0  0  0  0  0
    0.4022   -2.4537    0.0898 S   0  0  2  0  0  0  0  0  0  0  0  0
    1.6687   -1.4048    0.0886 N   0  0  0  0  0  0  0  0  0  0  0  0
    1.7074   -0.3372    1.0806 C   0  0  0  0  0  0  0  0  0  0  0  0
    3.1164    0.1769    1.2393 C   0  0  0  0  0  0  0  0  0  0  0  0
    3.5382    0.7184   -0.0180 O   0  0  0  0  0  0  0  0  0  0  0  0
    5.0337    1.2585   -0.1841 P   0  0  1  0  0  0  0  0  0  0  0  0
    4.8927    1.7489   -1.6925 O   0  0  0  0  0  0  0  0  0  0  0  0
    5.4960    2.2349    0.8185 O   0  0  0  0  0  0  0  0  0  0  0  0
    5.9883   -0.0220   -0.1674 O   0  0  0  0  0  0  0  0  0  0  0  0
    0.5959   -3.3160   -1.0625 O   0  0  0  0  0  0  0  0  0  0  0  0
    0.3179   -3.0179    1.4257 O   0  0  0  0  0  0  0  0  0  0  0  0
   -3.5046    0.0256    1.5739 H   0  0  0  0  0  0  0  0  0  0  0  0
   -1.5599   -1.3644    1.9130 H   0  0  0  0  0  0  0  0  0  0  0  0
   -0.8209   -1.4382   -2.3234 H   0  0  0  0  0  0  0  0  0  0  0  0
   -2.7797   -0.0028   -2.6731 H   0  0  0  0  0  0  0  0  0  0  0  0
    1.9103   -1.1050   -0.8504 H   0  0  0  0  0  0  0  0  0  0  0  0
    1.4032   -0.7343    2.0488 H   0  0  0  0  0  0  0  0  0  0  0  0
    1.0276    0.4826    0.8280 H   0  0  0  0  0  0  0  0  0  0  0  0
    3.7755   -0.6379    1.5483 H   0  0  0  0  0  0  0  0  0  0  0  0
    3.1295    0.9500    2.0096 H   0  0  0  0  0  0  0  0  0  0  0  0
    5.6024    2.3383   -1.9809 H   0  0  0  0  0  0  0  0  0  0  0  0
    5.7921   -0.7085   -0.8192 H   0  0  0  0  0  0  0  0  0  0  0  0
  1  2  2  0
  1  6  1  0
  1  7  1  0
  2  3  1  0
  2 23  1  0
  3  4  2  0
  3 24  1  0
  4  5  1  0
  4 12  1  0
  5  6  2  0
  5 25  1  0
  6 26  1  0
  7  8  1  0
  8  9  1  1
  8 10  1  0
  8 11  1  0
 12 13  1  1
 12 21  2  0
 12 22  2  0
 13 14  1  0
 13 27  1  0
 14 15  1  0
 14 28  1  0
 14 29  1  0
 15 16  1  0
 15 30  1  0
 15 31  1  0
 17 16  1  1
 17 18  1  0
 17 19  2  0
 17 20  1  0
 18 32  1  0
 20 33  1  0
M  END
