
     RDKit          3D

 37 39  0  0  0  0  0  0  0  0999 V2000
   -4.7400    2.6101   -1.0092 O   0  0  0  0  0  0  0  0  0  0  0  0
   -3.9733    1.7995   -0.2861 C   0  0  0  0  0  0  0  0  0  0  0  0
   -4.3427    1.2718    0.7307 O   0  0  0  0  0  0  0  0  0  0  0  0
   -2.6048    1.6450   -0.9042 C   0  0  0  0  0  0  0  0  0  0  0  0
   -1.7539    0.6370   -0.2195 C   0  0  0  0  0  0  0  0  0  0  0  0
   -1.9295   -0.7828   -0.2354 C   0  0  0  0  0  0  0  0  0  0  0  0
   -2.8764   -1.6298   -0.8192 C   0  0  0  0  0  0  0  0  0  0  0  0
   -2.7536   -2.9938   -0.6402 C   0  0  0  0  0  0  0  0  0  0  0  0
   -1.7011   -3.5287    0.1197 C   0  0  0  0  0  0  0  0  0  0  0  0
   -0.7540   -2.7148    0.7120 C   0  0  0  0  0  0  0  0  0  0  0  0
   -0.8805   -1.3378    0.5295 C   0  0  0  0  0  0  0  0  0  0  0  0
   -0.1176   -0.3025    1.0003 N   0  0  0  0  0  0  0  0  0  0  0  0
   -0.6413    0.8736    0.5316 C   0  0  0  0  0  0  0  0  0  0  0  0
    1.1344   -0.4131    1.7176 C   0  0  0  0  0  0  0  0  0  0  0  0
    2.3244   -0.3122    0.7980 C   0  0  0  0  0  0  0  0  0  0  0  0
    3.0145    0.8859    0.6863 C   0  0  0  0  0  0  0  0  0  0  0  0
    4.0933    1.0103   -0.1931 C   0  0  0  0  0  0  0  0  0  0  0  0
    4.7932    2.2497   -0.2957 C   0  0  0  0  0  0  0  0  0  0  0  0
    5.3833    3.2956   -0.3771 C   0  0  0  0  0  0  0  0  0  0  0  0
    4.4786   -0.0862   -0.9657 C   0  0  0  0  0  0  0  0  0  0  0  0
    3.7920   -1.2850   -0.8518 C   0  0  0  0  0  0  0  0  0  0  0  0
    2.7231   -1.4000    0.0246 C   0  0  0  0  0  0  0  0  0  0  0  0
   -5.6077    2.7083   -0.5896 H   0  0  0  0  0  0  0  0  0  0  0  0
   -2.7347    1.3961   -1.9625 H   0  0  0  0  0  0  0  0  0  0  0  0
   -2.1222    2.6271   -0.8959 H   0  0  0  0  0  0  0  0  0  0  0  0
   -3.6927   -1.2262   -1.4064 H   0  0  0  0  0  0  0  0  0  0  0  0
   -3.4774   -3.6623   -1.0879 H   0  0  0  0  0  0  0  0  0  0  0  0
   -1.6282   -4.6012    0.2454 H   0  0  0  0  0  0  0  0  0  0  0  0
    0.0514   -3.1467    1.2923 H   0  0  0  0  0  0  0  0  0  0  0  0
   -0.1760    1.8163    0.7791 H   0  0  0  0  0  0  0  0  0  0  0  0
    1.1716    0.3742    2.4714 H   0  0  0  0  0  0  0  0  0  0  0  0
    1.1393   -1.3592    2.2590 H   0  0  0  0  0  0  0  0  0  0  0  0
    2.7205    1.7369    1.2894 H   0  0  0  0  0  0  0  0  0  0  0  0
    5.9041    4.2224   -0.4549 H   0  0  0  0  0  0  0  0  0  0  0  0
    5.3136    0.0020   -1.6477 H   0  0  0  0  0  0  0  0  0  0  0  0
    4.0957   -2.1353   -1.4477 H   0  0  0  0  0  0  0  0  0  0  0  0
    2.2008   -2.3452    0.1089 H   0  0  0  0  0  0  0  0  0  0  0  0
 20 21  2  0
 20 17  1  0
 21 22  1  0
 19 18  3  0
 18 17  1  0
 17 16  2  0
 22 15  2  0
 16 15  1  0
 15 14  1  0
 14 12  1  0
 12 13  1  0
 12 11  1  0
 13  5  2  0
 11 10  1  0
 11  6  2  0
 10  9  2  0
  5  6  1  0
  5  4  1  0
  6  7  1  0
  9  8  1  0
  4  2  1  0
  3  2  2  0
  7  8  2  0
  2  1  1  0
  1 23  1  0
  4 24  1  0
  4 25  1  0
  7 26  1  0
  8 27  1  0
  9 28  1  0
 10 29  1  0
 13 30  1  0
 14 31  1  0
 14 32  1  0
 16 33  1  0
 19 34  1  0
 20 35  1  0
 21 36  1  0
 22 37  1  0
M  END
