
     RDKit          3D

 25 24  0  0  0  0  0  0  0  0999 V2000
    1.6745    0.5770   -0.3402 C   0  0  1  0  0  0  0  0  0  0  0  0
   -3.3570    0.5200    0.0846 C   0  0  0  0  0  0  0  0  0  0  0  0
    2.9325   -0.2012   -0.0054 C   0  0  0  0  0  0  0  0  0  0  0  0
   -2.0924   -0.3146    0.1924 C   0  0  2  0  0  0  0  0  0  0  0  0
   -0.8616    0.5100   -0.2034 C   0  0  1  0  0  0  0  0  0  0  0  0
    0.4453   -0.2486    0.0766 C   0  0  2  0  0  0  0  0  0  0  0  0
   -0.9161    0.9283   -1.5486 O   0  0  0  0  0  0  0  0  0  0  0  0
    0.5459   -0.6332    1.4263 O   0  0  0  0  0  0  0  0  0  0  0  0
   -2.1702   -1.5121   -0.5542 O   0  0  0  0  0  0  0  0  0  0  0  0
    1.6948    1.8196    0.3033 O   0  0  0  0  0  0  0  0  0  0  0  0
    3.7352    0.1717    0.8143 O   0  0  0  0  0  0  0  0  0  0  0  0
    3.0413   -1.3159   -0.7023 O   0  0  0  0  0  0  0  0  0  0  0  0
    1.6506    0.7285   -1.4250 H   0  0  0  0  0  0  0  0  0  0  0  0
   -3.2097    1.4448    0.6586 H   0  0  0  0  0  0  0  0  0  0  0  0
   -3.5192    0.8182   -0.9601 H   0  0  0  0  0  0  0  0  0  0  0  0
   -1.9747   -0.6054    1.2408 H   0  0  0  0  0  0  0  0  0  0  0  0
   -0.8666    1.4248    0.3992 H   0  0  0  0  0  0  0  0  0  0  0  0
    0.4402   -1.1739   -0.5074 H   0  0  0  0  0  0  0  0  0  0  0  0
   -0.8824    0.1497   -2.1161 H   0  0  0  0  0  0  0  0  0  0  0  0
    0.5246    0.1584    1.9766 H   0  0  0  0  0  0  0  0  0  0  0  0
   -2.6823   -1.3581   -1.3541 H   0  0  0  0  0  0  0  0  0  0  0  0
    2.3852    1.8068    0.9782 H   0  0  0  0  0  0  0  0  0  0  0  0
   -5.2436    0.2776    0.4377 H   0  0  0  0  0  0  0  0  0  0  0  0
    3.8421   -1.7981   -0.4456 H   0  0  0  0  0  0  0  0  0  0  0  0
   -4.4409   -0.2319    0.5792 O   0  0  0  0  0  0  0  0  0  0  0  0
 11  3  2  0
  8  6  1  0
  3 12  1  0
  3  1  1  0
  9  4  1  0
  1  6  1  0
  1 10  1  0
  6  5  1  0
  5  4  1  0
  5  7  1  0
  4  2  1  0
  2 25  1  0
  1 13  1  6
  2 14  1  0
  2 15  1  0
  4 16  1  1
  5 17  1  1
  6 18  1  6
  7 19  1  0
  8 20  1  0
  9 21  1  0
 10 22  1  0
 25 23  1  0
 12 24  1  0
M  END
