
     RDKit          3D

 23 22  0  0  0  0  0  0  0  0999 V2000
    3.0954   -0.2226    0.9137 O   0  0  0  0  0  0  0  0  0  0  0  0
    3.1372    0.4192   -0.1071 C   0  0  0  0  0  0  0  0  0  0  0  0
    4.2479    0.9058   -0.6321 O   0  0  0  0  0  0  0  0  0  0  0  0
    1.9209    0.7714   -0.9194 C   0  0  0  0  0  0  0  0  0  0  0  0
    0.6799    0.1926   -0.3023 C   0  0  0  0  0  0  0  0  0  0  0  0
    0.7110   -1.3180   -0.1900 C   0  0  0  0  0  0  0  0  0  0  0  0
    1.2352   -1.9924   -1.0366 O   0  0  0  0  0  0  0  0  0  0  0  0
    0.1206   -1.7852    0.8905 O   0  0  0  0  0  0  0  0  0  0  0  0
   -0.2719    0.9640   -0.0116 N   0  0  0  0  0  0  0  0  0  0  0  0
   -1.5549    0.5802    0.5213 C   0  0  1  0  0  0  0  0  0  0  0  0
   -2.1759    1.7068    1.0692 O   0  0  0  0  0  0  0  0  0  0  0  0
   -2.4198   -0.0301   -0.5858 C   0  0  0  0  0  0  0  0  0  0  0  0
   -3.8075   -0.2814   -0.0716 C   0  0  0  0  0  0  0  0  0  0  0  0
   -4.8181    0.0438   -0.6402 O   0  0  0  0  0  0  0  0  0  0  0  0
    5.0097    0.6778   -0.0775 H   0  0  0  0  0  0  0  0  0  0  0  0
    1.8219    1.8567   -0.9747 H   0  0  0  0  0  0  0  0  0  0  0  0
    2.0497    0.4133   -1.9447 H   0  0  0  0  0  0  0  0  0  0  0  0
    0.1507   -2.7555    0.9051 H   0  0  0  0  0  0  0  0  0  0  0  0
   -2.4483    0.6193   -1.4635 H   0  0  0  0  0  0  0  0  0  0  0  0
   -2.0106   -0.9973   -0.8959 H   0  0  0  0  0  0  0  0  0  0  0  0
   -3.8489   -0.8256    0.8890 H   0  0  0  0  0  0  0  0  0  0  0  0
   -1.4670   -0.1226    1.3513 H   0  0  0  0  0  0  0  0  0  0  0  0
   -2.2804    2.3738    0.3795 H   0  0  0  0  0  0  0  0  0  0  0  0
 11 10  1  0
 14 13  2  0
 13 12  1  0
 10 12  1  0
 10  9  1  0
  9  5  2  0
  1  2  2  0
  2  3  1  0
  2  4  1  0
  5  4  1  0
  5  6  1  0
  6  7  2  0
  6  8  1  0
  3 15  1  0
  4 16  1  0
  4 17  1  0
  8 18  1  0
 12 19  1  0
 12 20  1  0
 13 21  1  0
 10 22  1  1
 11 23  1  0
M  END
