
     RDKit          3D

 48 51  0  0  0  0  0  0  0  0999 V2000
    2.5645    2.4652    1.0761 C   0  0  0  0  0  0  0  0  0  0  0  0
    1.7295   -2.5342    2.1064 C   0  0  0  0  0  0  0  0  0  0  0  0
    2.8465   -3.2129    2.5748 C   0  0  0  0  0  0  0  0  0  0  0  0
    3.1368   -4.2761    0.5912 C   0  0  0  0  0  0  0  0  0  0  0  0
    2.0347   -3.6530    0.0308 C   0  0  0  0  0  0  0  0  0  0  0  0
   -1.6595    0.3117   -1.3003 C   0  0  0  0  0  0  0  0  0  0  0  0
   -1.2249    1.6008   -1.5865 C   0  0  0  0  0  0  0  0  0  0  0  0
   -1.8142    2.6779   -0.9430 C   0  0  0  0  0  0  0  0  0  0  0  0
   -2.8286    2.4727   -0.0228 C   0  0  0  0  0  0  0  0  0  0  0  0
   -3.2416    1.1730    0.2402 C   0  0  0  0  0  0  0  0  0  0  0  0
   -2.6756    0.0749   -0.3887 C   0  0  0  0  0  0  0  0  0  0  0  0
    4.6234    3.2830    0.0851 C   0  0  0  0  0  0  0  0  0  0  0  0
    1.5066    0.5237   -0.0073 C   0  0  0  0  0  0  0  0  0  0  0  0
    2.5541    1.4459    0.0239 C   0  0  0  0  0  0  0  0  0  0  0  0
    4.6342    2.3551   -0.8897 C   0  0  0  0  0  0  0  0  0  0  0  0
    3.5738    1.3955   -0.9427 C   0  0  0  0  0  0  0  0  0  0  0  0
    3.5166    0.3915   -1.9246 C   0  0  0  0  0  0  0  0  0  0  0  0
    2.4876   -0.5184   -1.9411 C   0  0  0  0  0  0  0  0  0  0  0  0
    1.4700   -0.4500   -0.9812 C   0  0  0  0  0  0  0  0  0  0  0  0
    0.0887   -2.0709    0.2570 C   0  0  0  0  0  0  0  0  0  0  0  0
    1.3063   -2.7580    0.8058 C   0  0  0  0  0  0  0  0  0  0  0  0
    3.6270    3.3261    1.0177 N   0  0  0  0  0  0  0  0  0  0  0  0
    0.4210   -1.4180   -1.0119 N   0  0  0  0  0  0  0  0  0  0  0  0
    3.5443   -4.0680    1.8399 N   0  0  0  0  0  0  0  0  0  0  0  0
    1.7109    2.5636    1.9464 O   0  0  0  0  0  0  0  0  0  0  0  0
   -1.7381   -2.2063   -2.0247 O   0  0  0  0  0  0  0  0  0  0  0  0
   -0.2511   -0.6193   -3.2928 O   0  0  0  0  0  0  0  0  0  0  0  0
   -5.3601    2.0738    1.5232 O   0  0  0  0  0  0  0  0  0  0  0  0
   -5.0805   -0.4101    1.2709 O   0  0  0  0  0  0  0  0  0  0  0  0
   -0.8362   -1.0719   -2.0483 S   0  0  1  0  0  0  0  0  0  0  0  0
   -4.5282    0.9090    1.4060 S   0  0  1  0  0  0  0  0  0  0  0  0
    1.2073   -1.8409    2.7529 H   0  0  0  0  0  0  0  0  0  0  0  0
    3.1900   -3.0497    3.5902 H   0  0  0  0  0  0  0  0  0  0  0  0
    3.7167   -4.9781    0.0027 H   0  0  0  0  0  0  0  0  0  0  0  0
    1.7556   -3.8638   -0.9934 H   0  0  0  0  0  0  0  0  0  0  0  0
   -0.4420    1.7724   -2.3122 H   0  0  0  0  0  0  0  0  0  0  0  0
   -1.4838    3.6828   -1.1627 H   0  0  0  0  0  0  0  0  0  0  0  0
   -3.2869    3.3183    0.4712 H   0  0  0  0  0  0  0  0  0  0  0  0
   -3.0212   -0.9295   -0.1832 H   0  0  0  0  0  0  0  0  0  0  0  0
    5.3888    4.0368    0.1908 H   0  0  0  0  0  0  0  0  0  0  0  0
    0.7372    0.5872    0.7516 H   0  0  0  0  0  0  0  0  0  0  0  0
    5.4322    2.3379   -1.6171 H   0  0  0  0  0  0  0  0  0  0  0  0
    4.2997    0.3316   -2.6692 H   0  0  0  0  0  0  0  0  0  0  0  0
    2.4642   -1.3004   -2.6873 H   0  0  0  0  0  0  0  0  0  0  0  0
   -0.6842   -2.8164    0.0736 H   0  0  0  0  0  0  0  0  0  0  0  0
   -0.3122   -1.3652    0.9925 H   0  0  0  0  0  0  0  0  0  0  0  0
   -3.6488    0.8758    2.7393 F   0  0  0  0  0  0  0  0  0  0  0  0
    3.6699    4.0426    1.7290 H   0  0  0  0  0  0  0  0  0  0  0  0
  3  2  2  0
  3 24  1  0
  2 21  1  0
 24  4  2  0
 21 20  1  0
 21  5  2  0
  4  5  1  0
 20 23  1  0
 29 31  2  0
 23 19  1  0
 30 23  1  1
 27 30  2  0
 18 19  2  0
 18 17  1  0
 19 13  1  0
 17 16  2  0
 13 14  2  0
 30  6  1  0
 30 26  2  0
 11  6  1  0
 11 10  2  0
 31 10  1  0
 31 28  2  0
 16 14  1  0
 16 15  1  0
 14  1  1  0
 15 12  2  0
  6  7  2  0
 10  9  1  0
  1 25  2  0
  1 22  1  0
 12 22  1  0
  7  8  1  0
  9  8  2  0
  2 32  1  0
  3 33  1  0
  4 34  1  0
  5 35  1  0
  7 36  1  0
  8 37  1  0
  9 38  1  0
 11 39  1  0
 12 40  1  0
 13 41  1  0
 15 42  1  0
 17 43  1  0
 18 44  1  0
 20 45  1  0
 20 46  1  0
 31 47  1  1
 22 48  1  0
M  END
