
     RDKit          3D

 32 33  0  0  0  0  0  0  0  0999 V2000
   -3.6581    1.0613   -0.4666 C   0  0  0  0  0  0  0  0  0  0  0  0
    5.1303   -1.1950   -0.2394 C   0  0  0  0  0  0  0  0  0  0  0  0
    5.1765    0.1357    0.1608 C   0  0  0  0  0  0  0  0  0  0  0  0
    4.0121    0.8775    0.2705 C   0  0  0  0  0  0  0  0  0  0  0  0
    2.7761    0.2963   -0.0248 C   0  0  0  0  0  0  0  0  0  0  0  0
    2.7290   -1.0359   -0.4281 C   0  0  0  0  0  0  0  0  0  0  0  0
    3.9035   -1.7721   -0.5300 C   0  0  0  0  0  0  0  0  0  0  0  0
    1.3623    1.3335    0.1315 S   0  0  0  0  0  0  0  0  0  0  0  0
   -0.0369    0.2171   -0.1514 C   0  0  0  0  0  0  0  0  0  0  0  0
   -1.3164    1.0235    0.0421 C   0  0  0  0  0  0  0  0  0  0  0  0
   -2.4959    0.2246   -0.2191 N   0  0  0  0  0  0  0  0  0  0  0  0
   -2.7882   -0.7134    0.8519 C   0  0  0  0  0  0  0  0  0  0  0  0
   -4.0225   -1.5280    0.5146 C   0  0  0  0  0  0  0  0  0  0  0  0
   -5.1408   -0.7074    0.2612 O   0  0  0  0  0  0  0  0  0  0  0  0
   -4.8653    0.2010   -0.7822 C   0  0  0  0  0  0  0  0  0  0  0  0
   -3.8842    1.7137    0.3941 H   0  0  0  0  0  0  0  0  0  0  0  0
   -3.4584    1.7144   -1.3198 H   0  0  0  0  0  0  0  0  0  0  0  0
    6.1253    0.6019    0.3931 H   0  0  0  0  0  0  0  0  0  0  0  0
    4.0644    1.9119    0.5891 H   0  0  0  0  0  0  0  0  0  0  0  0
    1.7891   -1.5130   -0.6689 H   0  0  0  0  0  0  0  0  0  0  0  0
    3.8507   -2.8066   -0.8440 H   0  0  0  0  0  0  0  0  0  0  0  0
   -0.0052   -0.1811   -1.1661 H   0  0  0  0  0  0  0  0  0  0  0  0
    0.0270   -0.6137    0.5525 H   0  0  0  0  0  0  0  0  0  0  0  0
   -1.3326    1.4641    1.0523 H   0  0  0  0  0  0  0  0  0  0  0  0
   -1.3108    1.8573   -0.6646 H   0  0  0  0  0  0  0  0  0  0  0  0
   -1.9549   -1.4061    0.9872 H   0  0  0  0  0  0  0  0  0  0  0  0
   -2.9360   -0.1933    1.8141 H   0  0  0  0  0  0  0  0  0  0  0  0
   -3.8109   -2.1664   -0.3551 H   0  0  0  0  0  0  0  0  0  0  0  0
   -4.2767   -2.1792    1.3524 H   0  0  0  0  0  0  0  0  0  0  0  0
   -5.7481    0.8287   -0.9120 H   0  0  0  0  0  0  0  0  0  0  0  0
   -4.6919   -0.3375   -1.7250 H   0  0  0  0  0  0  0  0  0  0  0  0
    6.0408   -1.7731   -0.3240 H   0  0  0  0  0  0  0  0  0  0  0  0
  7  6  1  0
  7  2  2  0
  6  5  2  0
  2  3  1  0
  5  8  1  0
  5  4  1  0
  3  4  2  0
  8  9  1  0
  9 10  1  0
 10 11  1  0
 11  1  1  0
 11 12  1  0
  1 15  1  0
 12 13  1  0
 15 14  1  0
 13 14  1  0
  1 16  1  0
  1 17  1  0
  2 32  1  0
  3 18  1  0
  4 19  1  0
  6 20  1  0
  7 21  1  0
  9 22  1  0
  9 23  1  0
 10 24  1  0
 10 25  1  0
 12 26  1  0
 12 27  1  0
 13 28  1  0
 13 29  1  0
 15 30  1  0
 15 31  1  0
M  END
