
     RDKit          3D

 79 82  0  0  0  0  0  0  0  0999 V2000
   -5.0990    0.0747   -0.5950 N   0  0  0  0  0  0  0  0  0  0  0  0
   -5.9702   -1.0685    1.1555 O   0  0  0  0  0  0  0  0  0  0  0  0
   -6.0671   -0.2074    0.2935 C   0  0  0  0  0  0  0  0  0  0  0  0
  -12.0895    0.6408    0.5755 C   0  0  0  0  0  0  0  0  0  0  0  0
   -1.3777   -0.1577   -0.0625 C   0  0  1  0  0  0  0  0  0  0  0  0
    2.1846   -1.7022    2.2791 C   0  0  1  0  0  0  0  0  0  0  0  0
    1.9646   -2.2974    3.6517 C   0  0  0  0  0  0  0  0  0  0  0  0
    9.6151    1.9101   -0.3984 C   0  0  0  0  0  0  0  0  0  0  0  0
   11.7891    0.5679   -1.5690 C   0  0  0  0  0  0  0  0  0  0  0  0
    5.0029    0.1374    0.5795 N   0  0  0  0  0  0  0  0  0  0  0  0
    1.2108   -0.6945    2.0702 O   0  0  0  0  0  0  0  0  0  0  0  0
    2.6786    0.9698   -0.8248 O   0  0  0  0  0  0  0  0  0  0  0  0
    0.7107   -2.9359    3.6770 O   0  0  0  0  0  0  0  0  0  0  0  0
    5.6198   -0.9599   -1.3002 O   0  0  0  0  0  0  0  0  0  0  0  0
   -0.1168    0.9816    0.5573 S   0  0  0  0  0  0  0  0  0  0  0  0
   -7.3252    0.5872    0.1298 C   0  0  0  0  0  0  0  0  0  0  0  0
   -2.7623    0.4955    0.0229 C   0  0  1  0  0  0  0  0  0  0  0  0
    1.2536   -0.1825    0.7712 C   0  0  1  0  0  0  0  0  0  0  0  0
    9.4908    0.6526   -0.9855 C   0  0  0  0  0  0  0  0  0  0  0  0
    3.8837   -0.1564    3.0948 O   0  0  0  0  0  0  0  0  0  0  0  0
   -7.3185    1.8986   -0.3460 C   0  0  0  0  0  0  0  0  0  0  0  0
   -3.7779   -0.4938   -0.5622 C   0  0  2  0  0  0  0  0  0  0  0  0
    2.5825    0.5329    0.5003 C   0  0  1  0  0  0  0  0  0  0  0  0
    8.2507    0.0148   -0.9887 C   0  0  0  0  0  0  0  0  0  0  0  0
   -8.5164    2.5818   -0.4637 C   0  0  0  0  0  0  0  0  0  0  0  0
   -3.3606   -0.9485   -1.9609 C   0  0  1  0  0  0  0  0  0  0  0  0
    3.7098   -0.4750    0.7363 C   0  0  2  0  0  0  0  0  0  0  0  0
    7.1500    0.6085   -0.3893 C   0  0  0  0  0  0  0  0  0  0  0  0
   -3.4905    0.1561   -2.8287 O   0  0  0  0  0  0  0  0  0  0  0  0
   -3.1276    0.7598    1.3475 O   0  0  0  0  0  0  0  0  0  0  0  0
   -9.7231    1.9817   -0.1265 C   0  0  0  0  0  0  0  0  0  0  0  0
   -1.9288   -1.4783   -1.9058 C   0  0  2  0  0  0  0  0  0  0  0  0
    3.5910   -1.1283    2.1140 C   0  0  2  0  0  0  0  0  0  0  0  0
    7.2725    1.8707    0.1941 C   0  0  0  0  0  0  0  0  0  0  0  0
   -1.0605   -0.4905   -1.3812 O   0  0  0  0  0  0  0  0  0  0  0  0
   -9.7277    0.6738    0.3551 C   0  0  0  0  0  0  0  0  0  0  0  0
   -1.4092   -1.8960   -3.2631 C   0  0  0  0  0  0  0  0  0  0  0  0
    8.5011    2.5073    0.1786 C   0  0  0  0  0  0  0  0  0  0  0  0
   -8.5215   -0.0123    0.4934 C   0  0  0  0  0  0  0  0  0  0  0  0
   -0.1675   -2.5347   -3.0933 O   0  0  0  0  0  0  0  0  0  0  0  0
   -5.2814    0.7507   -1.3208 H   0  0  0  0  0  0  0  0  0  0  0  0
   -3.8025   -1.3757    0.0823 H   0  0  0  0  0  0  0  0  0  0  0  0
  -12.1602    1.5322    1.2041 H   0  0  0  0  0  0  0  0  0  0  0  0
  -12.2958    0.9229   -0.4601 H   0  0  0  0  0  0  0  0  0  0  0  0
  -12.8389   -0.0767    0.8997 H   0  0  0  0  0  0  0  0  0  0  0  0
   -1.3669   -1.0490    0.5835 H   0  0  0  0  0  0  0  0  0  0  0  0
   -2.7575    1.4072   -0.5904 H   0  0  0  0  0  0  0  0  0  0  0  0
    2.0657   -2.5005    1.5284 H   0  0  0  0  0  0  0  0  0  0  0  0
    2.7837   -3.0025    3.8434 H   0  0  0  0  0  0  0  0  0  0  0  0
    2.0323   -1.5074    4.4092 H   0  0  0  0  0  0  0  0  0  0  0  0
    4.3050   -1.9588    2.1544 H   0  0  0  0  0  0  0  0  0  0  0  0
    0.6314   -3.3956    4.5174 H   0  0  0  0  0  0  0  0  0  0  0  0
    5.3043    0.7400    1.3294 H   0  0  0  0  0  0  0  0  0  0  0  0
    8.6026    3.4896    0.6206 H   0  0  0  0  0  0  0  0  0  0  0  0
   11.8115    1.5079   -2.1262 H   0  0  0  0  0  0  0  0  0  0  0  0
   12.1555    0.7489   -0.5551 H   0  0  0  0  0  0  0  0  0  0  0  0
   12.4500   -0.1439   -2.0570 H   0  0  0  0  0  0  0  0  0  0  0  0
    3.6165   -1.2609   -0.0171 H   0  0  0  0  0  0  0  0  0  0  0  0
    1.1250   -0.9776    0.0205 H   0  0  0  0  0  0  0  0  0  0  0  0
    1.9189    1.5328   -1.0163 H   0  0  0  0  0  0  0  0  0  0  0  0
    2.6797    1.3651    1.2142 H   0  0  0  0  0  0  0  0  0  0  0  0
   -6.3939    2.4028   -0.5953 H   0  0  0  0  0  0  0  0  0  0  0  0
   -8.5294   -1.0254    0.8755 H   0  0  0  0  0  0  0  0  0  0  0  0
   -2.7728    1.6147    1.6073 H   0  0  0  0  0  0  0  0  0  0  0  0
    8.1589   -0.9585   -1.4540 H   0  0  0  0  0  0  0  0  0  0  0  0
    4.4146   -0.5590    3.7870 H   0  0  0  0  0  0  0  0  0  0  0  0
   -8.5195    3.6029   -0.8219 H   0  0  0  0  0  0  0  0  0  0  0  0
   -4.0214   -1.7700   -2.2632 H   0  0  0  0  0  0  0  0  0  0  0  0
  -10.6391    2.5443   -0.2432 H   0  0  0  0  0  0  0  0  0  0  0  0
   -3.7079   -0.1562   -3.7115 H   0  0  0  0  0  0  0  0  0  0  0  0
   -1.9317   -2.3643   -1.2498 H   0  0  0  0  0  0  0  0  0  0  0  0
    6.4220    2.3752    0.6336 H   0  0  0  0  0  0  0  0  0  0  0  0
   -2.1539   -2.5673   -3.7121 H   0  0  0  0  0  0  0  0  0  0  0  0
   -1.3290   -1.0175   -3.9142 H   0  0  0  0  0  0  0  0  0  0  0  0
    0.2000   -2.7087   -3.9642 H   0  0  0  0  0  0  0  0  0  0  0  0
    5.8536   -0.1412   -0.4229 C   0  0  0  0  0  0  0  0  0  0  0  0
  -10.8362   -0.0011    0.7078 O   0  0  0  0  0  0  0  0  0  0  0  0
   10.5594    2.4368   -0.3821 H   0  0  0  0  0  0  0  0  0  0  0  0
   10.5010   -0.0160   -1.5694 O   0  0  0  0  0  0  0  0  0  0  0  0
  1  3  1  0
  1 22  1  0
  2  3  2  0
  3 16  1  0
  4 77  1  0
  5 15  1  0
  5 17  1  0
  5 35  1  0
  6  7  1  0
  6 11  1  0
  6 33  1  0
  7 13  1  0
 76 10  1  0
 76 14  2  0
 76 28  1  0
  8 19  2  0
  8 38  1  0
  9 79  1  0
 10 27  1  0
 77 36  1  0
 11 18  1  0
 12 23  1  0
 79 19  1  0
 15 18  1  0
 16 21  2  0
 16 39  1  0
 17 22  1  0
 17 30  1  0
 18 23  1  0
 19 24  1  0
 20 33  1  0
 21 25  1  0
 22 26  1  0
 23 27  1  0
 24 28  2  0
 25 31  2  0
 26 29  1  0
 26 32  1  0
 27 33  1  0
 28 34  1  0
 31 36  1  0
 32 35  1  0
 32 37  1  0
 34 38  2  0
 36 39  2  0
  1 41  1  0
 22 42  1  1
  4 43  1  0
  4 44  1  0
  4 45  1  0
  5 46  1  1
 17 47  1  6
  6 48  1  6
  7 49  1  0
  7 50  1  0
 33 51  1  6
 13 52  1  0
 10 53  1  0
  8 78  1  0
 38 54  1  0
  9 55  1  0
  9 56  1  0
  9 57  1  0
 27 58  1  6
 18 59  1  6
 12 60  1  0
 23 61  1  1
 21 62  1  0
 39 63  1  0
 30 64  1  0
 24 65  1  0
 20 66  1  0
 25 67  1  0
 26 68  1  6
 31 69  1  0
 29 70  1  0
 32 71  1  1
 34 72  1  0
 37 73  1  0
 37 74  1  0
 37 40  1  0
 40 75  1  0
M  END
