
     RDKit          3D

 32 35  0  0  0  0  0  0  0  0999 V2000
   -6.1731   -1.5804    0.6414 Cl  0  0  0  0  0  0  0  0  0  0  0  0
   -4.7982   -0.7201    0.0324 C   0  0  0  0  0  0  0  0  0  0  0  0
   -3.8496   -0.2576    0.9263 C   0  0  0  0  0  0  0  0  0  0  0  0
   -2.7700    0.4317    0.3946 C   0  0  0  0  0  0  0  0  0  0  0  0
   -2.6254    0.6488   -0.9825 C   0  0  0  0  0  0  0  0  0  0  0  0
   -3.5998    0.1697   -1.8549 C   0  0  0  0  0  0  0  0  0  0  0  0
   -4.6857   -0.5144   -1.3436 C   0  0  0  0  0  0  0  0  0  0  0  0
   -1.4870    1.3251   -1.3468 N   0  0  0  0  0  0  0  0  0  0  0  0
   -0.7914    1.6316   -0.3122 C   0  0  0  0  0  0  0  0  0  0  0  0
    0.3672    2.3671   -0.4277 N   0  0  0  0  0  0  0  0  0  0  0  0
    1.6625    2.2590    0.6158 S   0  0  1  0  0  0  0  0  0  0  0  0
    2.5680    3.3076    0.2124 O   0  0  0  0  0  0  0  0  0  0  0  0
    1.0874    2.1942    1.9435 O   0  0  0  0  0  0  0  0  0  0  0  0
    2.4120    0.7213    0.2896 C   0  0  0  0  0  0  0  0  0  0  0  0
    3.4481    0.5188   -0.5579 C   0  0  0  0  0  0  0  0  0  0  0  0
    3.7938   -0.8638   -0.6380 C   0  0  0  0  0  0  0  0  0  0  0  0
    4.8075   -1.4691   -1.3926 C   0  0  0  0  0  0  0  0  0  0  0  0
    4.9710   -2.8343   -1.3208 C   0  0  0  0  0  0  0  0  0  0  0  0
    4.1387   -3.6149   -0.5039 C   0  0  0  0  0  0  0  0  0  0  0  0
    3.1343   -3.0437    0.2507 C   0  0  0  0  0  0  0  0  0  0  0  0
    2.9692   -1.6624    0.1754 C   0  0  0  0  0  0  0  0  0  0  0  0
    1.7963   -0.7194    1.0330 S   0  0  0  0  0  0  0  0  0  0  0  0
   -1.4311    1.1372    1.2429 S   0  0  0  0  0  0  0  0  0  0  0  0
   -3.9508   -0.4234    1.9901 H   0  0  0  0  0  0  0  0  0  0  0  0
   -3.5034    0.3299   -2.9203 H   0  0  0  0  0  0  0  0  0  0  0  0
   -5.4492   -0.8914   -2.0100 H   0  0  0  0  0  0  0  0  0  0  0  0
    0.6114    2.6076   -1.3847 H   0  0  0  0  0  0  0  0  0  0  0  0
    3.9535    1.3019   -1.1054 H   0  0  0  0  0  0  0  0  0  0  0  0
    5.4478   -0.8631   -2.0203 H   0  0  0  0  0  0  0  0  0  0  0  0
    5.7503   -3.3152   -1.8967 H   0  0  0  0  0  0  0  0  0  0  0  0
    4.2880   -4.6856   -0.4626 H   0  0  0  0  0  0  0  0  0  0  0  0
    2.4970   -3.6504    0.8798 H   0  0  0  0  0  0  0  0  0  0  0  0
  1  2  1  0
  7  2  2  0
  7  6  1  0
  2  3  1  0
  6  5  2  0
  3  4  2  0
  5  4  1  0
  5  8  1  0
  4 23  1  0
  8  9  2  0
 18 17  1  0
 18 19  2  0
 17 16  2  0
  9 23  1  0
  9 10  1  0
 19 20  1  0
 16 15  1  0
 16 21  1  0
 15 14  2  0
 11 10  1  6
 20 21  2  0
 21 22  1  0
 14 22  1  0
 14 11  1  0
 11 12  2  0
 11 13  2  0
  3 24  1  0
  6 25  1  0
  7 26  1  0
 10 27  1  0
 15 28  1  0
 17 29  1  0
 18 30  1  0
 19 31  1  0
 20 32  1  0
M  END
