
     RDKit          3D

 36 36  0  0  0  0  0  0  0  0999 V2000
    0.1175    2.6846    1.0073 O   0  0  0  0  0  0  0  0  0  0  0  0
   -0.1834    2.4608   -0.3509 C   0  0  0  0  0  0  0  0  0  0  0  0
   -0.5645    1.0033   -0.5640 C   0  0  2  0  0  0  0  0  0  0  0  0
   -1.8846    0.6811    0.1512 C   0  0  1  0  0  0  0  0  0  0  0  0
   -2.8668    1.5850   -0.3010 O   0  0  0  0  0  0  0  0  0  0  0  0
   -2.3183   -0.7518   -0.1207 C   0  0  2  0  0  0  0  0  0  0  0  0
   -3.5014   -0.9789    0.6128 O   0  0  0  0  0  0  0  0  0  0  0  0
   -1.2056   -1.7087    0.2522 C   0  0  1  0  0  0  0  0  0  0  0  0
   -1.6176   -3.0085   -0.1104 O   0  0  0  0  0  0  0  0  0  0  0  0
    0.4524    0.0548   -0.1100 N   0  0  0  0  0  0  0  0  0  0  0  0
    0.0677   -1.2963   -0.4723 C   0  0  0  0  0  0  0  0  0  0  0  0
    1.8073    0.3662   -0.5443 C   0  0  0  0  0  0  0  0  0  0  0  0
    2.8843   -0.4357    0.1764 C   0  0  0  0  0  0  0  0  0  0  0  0
    4.2848    0.0044   -0.2350 C   0  0  0  0  0  0  0  0  0  0  0  0
    5.3766   -0.7735    0.4859 C   0  0  0  0  0  0  0  0  0  0  0  0
    0.2051    3.6324    1.1396 H   0  0  0  0  0  0  0  0  0  0  0  0
   -1.0226    3.0765   -0.6890 H   0  0  0  0  0  0  0  0  0  0  0  0
    0.6595    2.7229   -1.0015 H   0  0  0  0  0  0  0  0  0  0  0  0
   -0.7365    0.8983   -1.6534 H   0  0  0  0  0  0  0  0  0  0  0  0
   -1.7171    0.7924    1.2325 H   0  0  0  0  0  0  0  0  0  0  0  0
   -3.6963    1.3571    0.1312 H   0  0  0  0  0  0  0  0  0  0  0  0
   -2.5038   -0.8519   -1.2031 H   0  0  0  0  0  0  0  0  0  0  0  0
   -3.8640   -1.8312    0.3522 H   0  0  0  0  0  0  0  0  0  0  0  0
   -1.0260   -1.6378    1.3344 H   0  0  0  0  0  0  0  0  0  0  0  0
   -1.0020   -3.6417    0.2711 H   0  0  0  0  0  0  0  0  0  0  0  0
    0.8593   -1.9936   -0.1950 H   0  0  0  0  0  0  0  0  0  0  0  0
   -0.0828   -1.4042   -1.5623 H   0  0  0  0  0  0  0  0  0  0  0  0
    1.9231    0.2430   -1.6353 H   0  0  0  0  0  0  0  0  0  0  0  0
    2.0105    1.4143   -0.3306 H   0  0  0  0  0  0  0  0  0  0  0  0
    2.7577   -0.3067    1.2559 H   0  0  0  0  0  0  0  0  0  0  0  0
    2.7878   -1.5059   -0.0229 H   0  0  0  0  0  0  0  0  0  0  0  0
    4.3990   -0.1198   -1.3162 H   0  0  0  0  0  0  0  0  0  0  0  0
    4.4039    1.0741   -0.0379 H   0  0  0  0  0  0  0  0  0  0  0  0
    5.2985   -1.8431    0.2825 H   0  0  0  0  0  0  0  0  0  0  0  0
    6.3706   -0.4502    0.1757 H   0  0  0  0  0  0  0  0  0  0  0  0
    5.3072   -0.6398    1.5671 H   0  0  0  0  0  0  0  0  0  0  0  0
  1  2  1  0
  1 16  1  0
  2  3  1  0
  2 17  1  0
  2 18  1  0
  3  4  1  0
  3 10  1  0
  3 19  1  6
  4  5  1  0
  4  6  1  0
  4 20  1  1
  5 21  1  0
  6  7  1  0
  6  8  1  0
  6 22  1  6
  7 23  1  0
  8  9  1  0
  8 11  1  0
  8 24  1  1
  9 25  1  0
 10 11  1  0
 10 12  1  0
 11 26  1  0
 11 27  1  0
 12 13  1  0
 12 28  1  0
 12 29  1  0
 13 14  1  0
 13 30  1  0
 13 31  1  0
 14 15  1  0
 14 32  1  0
 14 33  1  0
 15 34  1  0
 15 35  1  0
 15 36  1  0
M  END
