
     RDKit          3D

 31 32  0  0  0  0  0  0  0  0999 V2000
    4.4147   -0.9724   -1.0123 C   0  0  0  0  0  0  0  0  0  0  0  0
    4.0477   -0.3853    1.2883 C   0  0  0  0  0  0  0  0  0  0  0  0
   -6.0439   -0.8750   -0.0909 C   0  0  0  0  0  0  0  0  0  0  0  0
   -4.6822   -0.4918   -0.4046 N   0  0  0  0  0  0  0  0  0  0  0  0
   -2.4574    0.0371    0.4225 C   0  0  0  0  0  0  0  0  0  0  0  0
   -2.1501    1.2860   -0.1163 C   0  0  0  0  0  0  0  0  0  0  0  0
   -0.8585    1.6075   -0.4940 C   0  0  0  0  0  0  0  0  0  0  0  0
   -1.4283   -0.8859    0.5559 C   0  0  0  0  0  0  0  0  0  0  0  0
   -0.1248   -0.5870    0.1754 C   0  0  0  0  0  0  0  0  0  0  0  0
    0.1573    0.6654   -0.3517 C   0  0  0  0  0  0  0  0  0  0  0  0
    1.3955    1.0416   -0.7842 O   0  0  0  0  0  0  0  0  0  0  0  0
    2.5008    0.3305   -0.3950 C   0  0  0  0  0  0  0  0  0  0  0  0
    3.2516   -0.3034   -1.3735 C   0  0  0  0  0  0  0  0  0  0  0  0
    4.8137   -1.0205    0.3168 C   0  0  0  0  0  0  0  0  0  0  0  0
    2.8914    0.2980    0.9381 C   0  0  0  0  0  0  0  0  0  0  0  0
    5.0064   -1.4613   -1.7748 H   0  0  0  0  0  0  0  0  0  0  0  0
    4.3508   -0.4203    2.3267 H   0  0  0  0  0  0  0  0  0  0  0  0
   -6.5511   -0.0564    0.4245 H   0  0  0  0  0  0  0  0  0  0  0  0
   -6.5936   -1.0752   -1.0108 H   0  0  0  0  0  0  0  0  0  0  0  0
   -6.1247   -1.7651    0.5497 H   0  0  0  0  0  0  0  0  0  0  0  0
   -4.2581   -1.2134   -0.9751 H   0  0  0  0  0  0  0  0  0  0  0  0
   -4.3155    0.4920    1.3816 H   0  0  0  0  0  0  0  0  0  0  0  0
   -3.8705   -1.2059    1.4361 H   0  0  0  0  0  0  0  0  0  0  0  0
   -2.9324    2.0271   -0.2308 H   0  0  0  0  0  0  0  0  0  0  0  0
   -0.6318    2.5827   -0.9070 H   0  0  0  0  0  0  0  0  0  0  0  0
   -1.6424   -1.8684    0.9604 H   0  0  0  0  0  0  0  0  0  0  0  0
    0.6461   -1.3383    0.2844 H   0  0  0  0  0  0  0  0  0  0  0  0
    2.9328   -0.2673   -2.4077 H   0  0  0  0  0  0  0  0  0  0  0  0
    5.7173   -1.5468    0.5948 H   0  0  0  0  0  0  0  0  0  0  0  0
    2.3058    0.8062    1.6938 H   0  0  0  0  0  0  0  0  0  0  0  0
   -3.8718   -0.3153    0.7893 C   0  0  0  0  0  0  0  0  0  0  0  0
  3  4  1  0
  8  9  1  0
  8  5  2  0
 31  4  1  0
 31  5  1  0
  9 10  2  0
  5  6  1  0
 10 11  1  0
 10  7  1  0
  6  7  2  0
 11 12  1  0
 12 13  1  0
 12 15  2  0
 13  1  2  0
 15  2  1  0
  1 14  1  0
  2 14  2  0
  1 16  1  0
  2 17  1  0
  3 18  1  0
  3 19  1  0
  3 20  1  0
  4 21  1  0
 31 22  1  0
 31 23  1  0
  6 24  1  0
  7 25  1  0
  8 26  1  0
  9 27  1  0
 13 28  1  0
 14 29  1  0
 15 30  1  0
M  END
