
     RDKit          3D

 33 33  0  0  0  0  0  0  0  0999 V2000
   -0.9659   -0.1385   -0.4739 C   0  0  2  0  0  0  0  0  0  0  0  0
    0.5569   -0.1385   -0.4739 C   0  0  1  0  0  0  0  0  0  0  0  0
    1.1140   -0.1385    0.9016 C   0  0  2  0  0  0  0  0  0  0  0  0
    0.5489    0.9706    1.7373 C   0  0  1  0  0  0  0  0  0  0  0  0
   -0.9817    0.9710    1.7329 C   0  0  1  0  0  0  0  0  0  0  0  0
   -1.4697    2.1930    2.4553 C   0  0  0  0  0  0  0  0  0  0  0  0
    1.9299   -1.2283   -2.3523 C   0  0  0  0  0  0  0  0  0  0  0  0
    2.4569   -2.4836   -3.0650 C   0  0  0  0  0  0  0  0  0  0  0  0
    1.0415   -1.3624   -1.1934 N   0  0  0  0  0  0  0  0  0  0  0  0
   -1.4069    0.0078   -1.7524 O   0  0  0  0  0  0  0  0  0  0  0  0
    2.5573    0.0225    0.8227 O   0  0  0  0  0  0  0  0  0  0  0  0
    1.0067    0.8147    3.0824 O   0  0  0  0  0  0  0  0  0  0  0  0
   -1.5320    0.9729    0.3671 O   0  0  0  0  0  0  0  0  0  0  0  0
   -2.8717    2.2159    2.4402 O   0  0  0  0  0  0  0  0  0  0  0  0
    2.2676   -0.1519   -2.7195 O   0  0  0  0  0  0  0  0  0  0  0  0
   -2.7573   -0.3398   -1.9325 C   0  0  0  0  0  0  0  0  0  0  0  0
   -1.3156   -1.0861   -0.0825 H   0  0  0  0  0  0  0  0  0  0  0  0
    0.9077    0.7445   -0.9944 H   0  0  0  0  0  0  0  0  0  0  0  0
    0.8847   -1.0862    1.3737 H   0  0  0  0  0  0  0  0  0  0  0  0
    0.9010    1.9179    1.3474 H   0  0  0  0  0  0  0  0  0  0  0  0
   -1.3332    0.0867    2.2504 H   0  0  0  0  0  0  0  0  0  0  0  0
   -1.0888    3.0797    1.9632 H   0  0  0  0  0  0  0  0  0  0  0  0
   -1.1200    2.1704    3.4803 H   0  0  0  0  0  0  0  0  0  0  0  0
    1.6689   -3.2249   -3.1207 H   0  0  0  0  0  0  0  0  0  0  0  0
    3.2950   -2.8885   -2.5108 H   0  0  0  0  0  0  0  0  0  0  0  0
    2.7783   -2.2224   -4.0661 H   0  0  0  0  0  0  0  0  0  0  0  0
    0.7749   -2.2713   -0.8699 H   0  0  0  0  0  0  0  0  0  0  0  0
    2.9729   -0.5634    1.4335 H   0  0  0  0  0  0  0  0  0  0  0  0
    1.6706    1.4589    3.2652 H   0  0  0  0  0  0  0  0  0  0  0  0
   -3.1785    2.9852    2.8908 H   0  0  0  0  0  0  0  0  0  0  0  0
   -3.3882    0.4624   -1.5695 H   0  0  0  0  0  0  0  0  0  0  0  0
   -2.9508   -0.5029   -2.9858 H   0  0  0  0  0  0  0  0  0  0  0  0
   -2.9733   -1.2469   -1.3810 H   0  0  0  0  0  0  0  0  0  0  0  0
  1  2  1  0
  1 10  1  0
  1 13  1  0
  1 17  1  1
  2  3  1  0
  2  9  1  0
  2 18  1  6
  3  4  1  0
  3 11  1  0
  3 19  1  1
  4  5  1  0
  4 12  1  0
  4 20  1  6
  5  6  1  0
  5 13  1  0
  5 21  1  1
  6 14  1  0
  6 22  1  0
  6 23  1  0
  7  8  1  0
  7  9  1  0
  7 15  2  0
  8 24  1  0
  8 25  1  0
  8 26  1  0
  9 27  1  0
 10 16  1  0
 11 28  1  0
 12 29  1  0
 14 30  1  0
 16 31  1  0
 16 32  1  0
 16 33  1  0
M  END
