
     RDKit          3D

 37 39  0  0  0  0  0  0  0  0999 V2000
   -5.7925    0.9086   -0.0765 S   0  0  1  0  0  0  0  0  0  0  0  0
   -4.1659    0.2344   -0.0404 C   0  0  0  0  0  0  0  0  0  0  0  0
   -6.2896    0.6337    1.4760 N   0  0  0  0  0  0  0  0  0  0  0  0
   -5.6837    2.3266   -0.3960 O   0  0  0  0  0  0  0  0  0  0  0  0
   -4.0046   -1.1467    0.0011 C   0  0  0  0  0  0  0  0  0  0  0  0
   -0.3690   -1.4315    0.0356 N   0  0  0  0  0  0  0  0  0  0  0  0
   -6.6517    0.0824   -0.9139 O   0  0  0  0  0  0  0  0  0  0  0  0
   -2.7353   -1.6833    0.0257 C   0  0  0  0  0  0  0  0  0  0  0  0
    0.7116   -0.7011    0.0188 N   0  0  0  0  0  0  0  0  0  0  0  0
    1.4497   -3.6297    0.1419 O   0  0  0  0  0  0  0  0  0  0  0  0
   -1.6174   -0.8437    0.0087 C   0  0  0  0  0  0  0  0  0  0  0  0
    3.5832   -2.7410    0.1287 N   0  0  0  0  0  0  0  0  0  0  0  0
    4.2702    3.5139   -0.1192 O   0  0  0  0  0  0  0  0  0  0  0  0
    1.8780   -1.2389    0.0493 C   0  0  0  0  0  0  0  0  0  0  0  0
    6.4121    2.8989   -0.0846 O   0  0  0  0  0  0  0  0  0  0  0  0
    2.2196   -2.6861    0.1120 C   0  0  0  0  0  0  0  0  0  0  0  0
    4.1501   -1.4807    0.0820 C   0  0  0  0  0  0  0  0  0  0  0  0
    5.4860   -1.1284    0.0805 C   0  0  0  0  0  0  0  0  0  0  0  0
    5.7959    0.2239    0.0260 C   0  0  0  0  0  0  0  0  0  0  0  0
    4.7961    1.2001   -0.0248 C   0  0  0  0  0  0  0  0  0  0  0  0
    5.1100    2.6445   -0.0820 C   0  0  0  0  0  0  0  0  0  0  0  0
    3.4500    0.8243   -0.0214 C   0  0  0  0  0  0  0  0  0  0  0  0
    3.1343   -0.5154    0.0314 C   0  0  0  0  0  0  0  0  0  0  0  0
   -1.7856    0.5407   -0.0353 C   0  0  0  0  0  0  0  0  0  0  0  0
   -3.0609    1.0743   -0.0609 C   0  0  0  0  0  0  0  0  0  0  0  0
    4.1058   -3.6034    0.1734 H   0  0  0  0  0  0  0  0  0  0  0  0
   -5.8260    1.2376    2.1475 H   0  0  0  0  0  0  0  0  0  0  0  0
   -7.2976    0.7281    1.5641 H   0  0  0  0  0  0  0  0  0  0  0  0
   -4.8592   -1.8095    0.0138 H   0  0  0  0  0  0  0  0  0  0  0  0
   -2.6079   -2.7581    0.0552 H   0  0  0  0  0  0  0  0  0  0  0  0
   -0.3032   -2.4450    0.0700 H   0  0  0  0  0  0  0  0  0  0  0  0
    6.2679   -1.8743    0.1196 H   0  0  0  0  0  0  0  0  0  0  0  0
    6.8383    0.5095    0.0232 H   0  0  0  0  0  0  0  0  0  0  0  0
    6.5590    3.8559   -0.1173 H   0  0  0  0  0  0  0  0  0  0  0  0
    2.6683    1.5714   -0.0599 H   0  0  0  0  0  0  0  0  0  0  0  0
   -0.9294    1.1991   -0.0510 H   0  0  0  0  0  0  0  0  0  0  0  0
   -3.1814    2.1480   -0.0965 H   0  0  0  0  0  0  0  0  0  0  0  0
  1  3  1  1
  4  1  2  0
  1  7  2  0
  1  2  1  0
  2  5  2  0
  2 25  1  0
 27  3  1  0
  3 28  1  0
 29  5  1  0
  5  8  1  0
 11  6  1  0
  6  9  1  0
  6 31  1  0
 30  8  1  0
  8 11  2  0
  9 14  2  0
 16 10  2  0
 24 11  1  0
 16 12  1  0
 17 12  1  0
 12 26  1  0
 13 21  2  0
 14 23  1  0
 14 16  1  0
 34 15  1  0
 21 15  1  0
 23 17  2  0
 17 18  1  0
 19 18  2  0
 18 32  1  0
 20 19  1  0
 19 33  1  0
 21 20  1  0
 22 20  2  0
 35 22  1  0
 22 23  1  0
 25 24  2  0
 24 36  1  0
 37 25  1  0
M  END
