
     RDKit          3D

 26 26  0  0  0  0  0  0  0  0999 V2000
    1.5783   -1.8321   -1.2318 C   0  0  0  0  0  0  0  0  0  0  0  0
    0.8424   -1.1544   -0.1917 N   0  0  0  0  0  0  0  0  0  0  0  0
    0.9646   -1.7943    1.0982 C   0  0  0  0  0  0  0  0  0  0  0  0
    0.9196    0.2783   -0.2547 C   0  0  2  0  0  0  0  0  0  0  0  0
    2.2932    0.8655    0.0556 C   0  0  0  0  0  0  0  0  0  0  0  0
    2.3943    2.1238   -0.3656 O   0  0  0  0  0  0  0  0  0  0  0  0
    3.1922    0.2896    0.6154 O   0  0  0  0  0  0  0  0  0  0  0  0
   -0.1373    0.9787    0.6235 C   0  0  0  0  0  0  0  0  0  0  0  0
   -1.5138    0.4930    0.3304 C   0  0  0  0  0  0  0  0  0  0  0  0
   -2.0930    0.6677   -0.8963 N   0  0  0  0  0  0  0  0  0  0  0  0
   -3.2837    0.1308   -0.8078 C   0  0  0  0  0  0  0  0  0  0  0  0
   -3.5038   -0.3799    0.4175 N   0  0  0  0  0  0  0  0  0  0  0  0
   -2.3812   -0.1572    1.1626 C   0  0  0  0  0  0  0  0  0  0  0  0
    1.2814   -2.8823   -1.2643 H   0  0  0  0  0  0  0  0  0  0  0  0
    1.3397   -1.3957   -2.2035 H   0  0  0  0  0  0  0  0  0  0  0  0
    2.6699   -1.8056   -1.1101 H   0  0  0  0  0  0  0  0  0  0  0  0
    1.9865   -1.8337    1.4917 H   0  0  0  0  0  0  0  0  0  0  0  0
    0.3374   -1.2981    1.8379 H   0  0  0  0  0  0  0  0  0  0  0  0
    0.6027   -2.8216    1.0174 H   0  0  0  0  0  0  0  0  0  0  0  0
    0.6877    0.5592   -1.2889 H   0  0  0  0  0  0  0  0  0  0  0  0
    3.2642    2.4823   -0.1331 H   0  0  0  0  0  0  0  0  0  0  0  0
    0.0861    0.8473    1.6843 H   0  0  0  0  0  0  0  0  0  0  0  0
   -0.0790    2.0523    0.4323 H   0  0  0  0  0  0  0  0  0  0  0  0
   -4.0219    0.0882   -1.5936 H   0  0  0  0  0  0  0  0  0  0  0  0
   -4.3439   -0.8405    0.7279 H   0  0  0  0  0  0  0  0  0  0  0  0
   -2.2954   -0.4714    2.1892 H   0  0  0  0  0  0  0  0  0  0  0  0
  7  5  2  0
  5  6  1  0
  5  4  1  0
 12 13  1  0
 12 11  1  0
 13  9  2  0
  3  2  1  0
 11 10  2  0
  4  2  1  0
  4  8  1  0
  9 10  1  0
  9  8  1  0
  2  1  1  0
  1 14  1  0
  1 15  1  0
  1 16  1  0
  3 17  1  0
  3 18  1  0
  3 19  1  0
  4 20  1  6
  6 21  1  0
  8 22  1  0
  8 23  1  0
 11 24  1  0
 12 25  1  0
 13 26  1  0
M  END
