
     RDKit          3D

  6  5  0  0  0  0  0  0  0  0999 V2000
   -1.2550    2.5161    0.6856 O   0  0  0  0  0  0  0  0  0  0  0  0
   -0.4188    1.9608    0.0369 N   0  0  0  0  0  0  0  0  0  0  0  0
    0.2040    0.8202    0.6908 C   0  0  0  0  0  0  0  0  0  0  0  0
    1.2789    1.0086    0.7080 H   0  0  0  0  0  0  0  0  0  0  0  0
    0.0504   -0.0432    0.0408 H   0  0  0  0  0  0  0  0  0  0  0  0
   -0.1800    0.6314    1.6929 H   0  0  0  0  0  0  0  0  0  0  0  0
  1  2  2  0
  2  3  1  0
  3  4  1  0
  3  5  1  0
  3  6  1  0
M  END
