
     RDKit          3D

 30 31  0  0  0  0  0  0  0  0999 V2000
   -3.4556   -2.2849    0.2152 O   0  0  0  0  0  0  0  0  0  0  0  0
   -3.4607    2.2520    0.1737 O   0  0  0  0  0  0  0  0  0  0  0  0
    3.4694   -2.2715   -0.1843 O   0  0  0  0  0  0  0  0  0  0  0  0
   -5.1637   -0.6874   -0.4306 C   0  0  0  0  0  0  0  0  0  0  0  0
   -5.1650    0.6391   -0.4433 C   0  0  0  0  0  0  0  0  0  0  0  0
    5.1621    0.6692    0.4420 C   0  0  0  0  0  0  0  0  0  0  0  0
    5.1679   -0.6575    0.4447 C   0  0  0  0  0  0  0  0  0  0  0  0
   -0.7072   -0.0124   -0.2778 C   0  0  0  0  0  0  0  0  0  0  0  0
    0.7085   -0.0053    0.2832 C   0  0  0  0  0  0  0  0  0  0  0  0
   -1.7411   -0.0080    0.8386 C   0  0  0  0  0  0  0  0  0  0  0  0
    1.7422   -0.0115   -0.8334 C   0  0  0  0  0  0  0  0  0  0  0  0
   -3.8359   -1.1512    0.0700 C   0  0  0  0  0  0  0  0  0  0  0  0
   -3.8383    1.1150    0.0490 C   0  0  0  0  0  0  0  0  0  0  0  0
    3.8334    1.1322   -0.0566 C   0  0  0  0  0  0  0  0  0  0  0  0
    3.8431   -1.1340   -0.0515 C   0  0  0  0  0  0  0  0  0  0  0  0
   -3.1026   -0.0147    0.3475 N   0  0  0  0  0  0  0  0  0  0  0  0
    3.1040   -0.0047   -0.3431 N   0  0  0  0  0  0  0  0  0  0  0  0
   -5.9495   -1.3684   -0.7196 H   0  0  0  0  0  0  0  0  0  0  0  0
   -5.9528    1.3133   -0.7434 H   0  0  0  0  0  0  0  0  0  0  0  0
    5.9465    1.3506    0.7338 H   0  0  0  0  0  0  0  0  0  0  0  0
    5.9575   -1.3308    0.7413 H   0  0  0  0  0  0  0  0  0  0  0  0
   -0.8555    0.8617   -0.9182 H   0  0  0  0  0  0  0  0  0  0  0  0
   -0.8514   -0.8947   -0.9077 H   0  0  0  0  0  0  0  0  0  0  0  0
    0.8530    0.8774    0.9125 H   0  0  0  0  0  0  0  0  0  0  0  0
    0.8567   -0.8785    0.9251 H   0  0  0  0  0  0  0  0  0  0  0  0
   -1.6142   -0.8792    1.4819 H   0  0  0  0  0  0  0  0  0  0  0  0
   -1.6183    0.8716    1.4711 H   0  0  0  0  0  0  0  0  0  0  0  0
    1.6197   -0.8923   -1.4641 H   0  0  0  0  0  0  0  0  0  0  0  0
    1.6151    0.8587   -1.4780 H   0  0  0  0  0  0  0  0  0  0  0  0
    3.4497    2.2657   -0.1942 O   0  0  0  0  0  0  0  0  0  0  0  0
  1 12  2  0
  2 13  2  0
 14 30  2  0
  3 15  2  0
 12  4  1  0
  5  4  2  0
  4 18  1  0
 13  5  1  0
  5 19  1  0
  7  6  2  0
 14  6  1  0
  6 20  1  0
 15  7  1  0
  7 21  1  0
  9  8  1  0
  8 10  1  0
  8 22  1  0
  8 23  1  0
  9 11  1  0
  9 24  1  0
  9 25  1  0
 10 16  1  0
 10 26  1  0
 10 27  1  0
 11 17  1  0
 11 28  1  0
 11 29  1  0
 16 12  1  0
 16 13  1  0
 17 14  1  0
 15 17  1  0
M  END
