
     RDKit          3D

 30 31  0  0  0  0  0  0  0  0999 V2000
   -3.9459    1.0954    0.9832 C   0  0  0  0  0  0  0  0  0  0  0  0
   -3.1323   -1.0455    0.2945 N   0  0  0  0  0  0  0  0  0  0  0  0
   -0.3811    1.4835   -1.7500 O   0  0  0  0  0  0  0  0  0  0  0  0
   -4.0984   -0.2616    0.7711 C   0  0  0  0  0  0  0  0  0  0  0  0
   -2.7242    1.6763    0.6556 C   0  0  0  0  0  0  0  0  0  0  0  0
   -1.7148    0.8891    0.1432 C   0  0  0  0  0  0  0  0  0  0  0  0
   -1.9842   -0.4768    0.0028 C   0  0  0  0  0  0  0  0  0  0  0  0
   -0.9602   -1.2883   -0.4783 N   0  0  0  0  0  0  0  0  0  0  0  0
    0.3477   -0.9422   -0.5527 C   0  0  0  0  0  0  0  0  0  0  0  0
    0.6659    0.4026    0.0726 C   0  0  2  0  0  0  0  0  0  0  0  0
   -0.3912    1.4122   -0.3457 C   0  0  1  0  0  0  0  0  0  0  0  0
   -1.3311   -2.5226   -0.9293 O   0  0  0  0  0  0  0  0  0  0  0  0
    1.1613   -1.6936   -1.0559 O   0  0  0  0  0  0  0  0  0  0  0  0
    2.0905    0.8184   -0.2354 C   0  0  0  0  0  0  0  0  0  0  0  0
    2.4006    1.7146   -0.9743 O   0  0  0  0  0  0  0  0  0  0  0  0
    2.9439    0.0844    0.4504 O   0  0  0  0  0  0  0  0  0  0  0  0
    4.3495    0.3209    0.2551 C   0  0  0  0  0  0  0  0  0  0  0  0
    5.1060   -0.6423    1.1358 C   0  0  0  0  0  0  0  0  0  0  0  0
   -4.7595    1.6827    1.3839 H   0  0  0  0  0  0  0  0  0  0  0  0
   -5.0382   -0.7505    0.9986 H   0  0  0  0  0  0  0  0  0  0  0  0
   -2.5634    2.7392    0.7890 H   0  0  0  0  0  0  0  0  0  0  0  0
    0.5874    0.2725    1.1599 H   0  0  0  0  0  0  0  0  0  0  0  0
   -0.5029   -2.9092   -1.2617 H   0  0  0  0  0  0  0  0  0  0  0  0
    4.5995    0.1687   -0.7964 H   0  0  0  0  0  0  0  0  0  0  0  0
    4.5844    1.3548    0.5138 H   0  0  0  0  0  0  0  0  0  0  0  0
    4.8825   -0.4843    2.1907 H   0  0  0  0  0  0  0  0  0  0  0  0
    4.8824   -1.6783    0.8825 H   0  0  0  0  0  0  0  0  0  0  0  0
    6.1752   -0.4873    0.9942 H   0  0  0  0  0  0  0  0  0  0  0  0
   -1.0651    2.1002   -2.0313 H   0  0  0  0  0  0  0  0  0  0  0  0
   -0.1809    2.3812    0.1216 H   0  0  0  0  0  0  0  0  0  0  0  0
  1  4  2  0
  1  5  1  0
  1 19  1  0
  2  7  2  0
  3 11  1  0
  4  2  1  0
  4 20  1  0
  5  6  2  0
  5 21  1  0
  6  7  1  0
  6 11  1  0
  7  8  1  0
  8 12  1  0
  8  9  1  0
  9 13  2  0
 10  9  1  0
 10 14  1  0
 10 22  1  1
 11 10  1  0
 12 23  1  0
 14 15  2  0
 14 16  1  0
 16 17  1  0
 17 18  1  0
 17 24  1  0
 17 25  1  0
 18 26  1  0
 18 27  1  0
 18 28  1  0
  3 29  1  0
 11 30  1  1
M  END
