
     RDKit          3D

 23 22  0  0  0  0  0  0  0  0999 V2000
   -1.6578   -5.6211   -2.4092 N   0  0  0  0  0  0  0  0  0  0  0  0
   -0.2251   -5.6873   -2.2503 C   0  0  1  0  0  0  0  0  0  0  0  0
    0.2267   -5.6999   -0.7823 C   0  0  0  0  0  0  0  0  0  0  0  0
   -0.0270   -4.3632   -0.1228 C   0  0  0  0  0  0  0  0  0  0  0  0
    0.4853   -4.3703    1.3073 C   0  0  0  0  0  0  0  0  0  0  0  0
    0.9823   -5.3907    1.8244 O   0  0  0  0  0  0  0  0  0  0  0  0
    0.3700   -3.1838    2.0074 N   0  0  0  0  0  0  0  0  0  0  0  0
    0.7992   -3.0113    3.3588 C   0  0  0  0  0  0  0  0  0  0  0  0
    0.4093   -6.8917   -2.9400 C   0  0  0  0  0  0  0  0  0  0  0  0
   -0.1015   -7.9873   -3.1931 O   0  0  0  0  0  0  0  0  0  0  0  0
    1.7031   -6.7085   -3.3133 O   0  0  0  0  0  0  0  0  0  0  0  0
   -2.1146   -6.3248   -1.8614 H   0  0  0  0  0  0  0  0  0  0  0  0
   -1.9126   -5.7373   -3.3712 H   0  0  0  0  0  0  0  0  0  0  0  0
    0.2125   -4.7697   -2.7528 H   0  0  0  0  0  0  0  0  0  0  0  0
   -0.3011   -6.5086   -0.2129 H   0  0  0  0  0  0  0  0  0  0  0  0
    1.3244   -5.9349   -0.7524 H   0  0  0  0  0  0  0  0  0  0  0  0
    0.4868   -3.5497   -0.6999 H   0  0  0  0  0  0  0  0  0  0  0  0
   -1.1267   -4.1360   -0.1154 H   0  0  0  0  0  0  0  0  0  0  0  0
   -0.0317   -2.4006    1.5541 H   0  0  0  0  0  0  0  0  0  0  0  0
   -0.0911   -2.9301    4.0401 H   0  0  0  0  0  0  0  0  0  0  0  0
    1.4017   -2.0668    3.4501 H   0  0  0  0  0  0  0  0  0  0  0  0
    1.4325   -3.8773    3.6895 H   0  0  0  0  0  0  0  0  0  0  0  0
    2.0376   -7.5134   -3.7435 H   0  0  0  0  0  0  0  0  0  0  0  0
  1  2  1  0
  1 12  1  0
  1 13  1  0
  2  3  1  0
  2  9  1  0
  2 14  1  6
  3  4  1  0
  3 15  1  0
  3 16  1  0
  4  5  1  0
  4 17  1  0
  4 18  1  0
  5  6  2  0
  5  7  1  0
  7  8  1  0
  7 19  1  0
  8 20  1  0
  8 21  1  0
  8 22  1  0
  9 10  2  0
  9 11  1  0
 11 23  1  0
M  END
