
     RDKit          3D

 42 43  0  0  0  0  0  0  0  0999 V2000
    3.2591   -4.8157    0.4270 N   0  0  0  0  0  0  0  0  0  0  0  0
    3.8019   -3.5715   -0.0710 C   0  0  1  0  0  0  0  0  0  0  0  0
    4.2027   -2.5481    1.0140 C   0  0  0  0  0  0  0  0  0  0  0  0
    5.0330   -3.8723   -0.9137 C   0  0  0  0  0  0  0  0  0  0  0  0
    5.9992   -4.5894   -0.6399 O   0  0  0  0  0  0  0  0  0  0  0  0
    3.6037   -1.2081    0.7725 C   0  0  0  0  0  0  0  0  0  0  0  0
    2.1717   -1.0356    1.1252 C   0  0  0  0  0  0  0  0  0  0  0  0
    1.4932   -1.9585    1.6004 O   0  0  0  0  0  0  0  0  0  0  0  0
    1.6155    0.2889    0.8768 C   0  0  0  0  0  0  0  0  0  0  0  0
    4.3223   -0.1948    0.2587 C   0  0  0  0  0  0  0  0  0  0  0  0
    3.7864    1.1556   -0.0033 C   0  0  0  0  0  0  0  0  0  0  0  0
    4.4407    2.1581   -0.4958 N   0  0  0  0  0  0  0  0  0  0  0  0
    2.3458    1.3056    0.3585 C   0  0  0  0  0  0  0  0  0  0  0  0
    1.8137    2.5447    0.1292 O   0  0  0  0  0  0  0  0  0  0  0  0
    3.4561    6.3108    1.1925 C   0  0  0  0  0  0  0  0  0  0  0  0
    4.0676    5.3937    0.3423 C   0  0  0  0  0  0  0  0  0  0  0  0
    5.3982    5.0096    0.5477 C   0  0  0  0  0  0  0  0  0  0  0  0
    6.1151    5.5567    1.6199 C   0  0  0  0  0  0  0  0  0  0  0  0
    5.5232    6.4739    2.4803 C   0  0  0  0  0  0  0  0  0  0  0  0
    4.1871    6.8493    2.2610 C   0  0  0  0  0  0  0  0  0  0  0  0
    6.0452    4.0296   -0.3642 C   0  0  0  0  0  0  0  0  0  0  0  0
    5.7156    2.5798    0.0137 C   0  0  0  0  0  0  0  0  0  0  0  0
    3.6528    7.7599    3.1433 O   0  0  0  0  0  0  0  0  0  0  0  0
    5.0346   -3.2519   -2.1217 O   0  0  0  0  0  0  0  0  0  0  0  0
    3.8469   -5.2131    1.1332 H   0  0  0  0  0  0  0  0  0  0  0  0
    2.3381   -4.6715    0.7889 H   0  0  0  0  0  0  0  0  0  0  0  0
    3.0179   -3.0962   -0.7383 H   0  0  0  0  0  0  0  0  0  0  0  0
    5.3225   -2.4770    1.0577 H   0  0  0  0  0  0  0  0  0  0  0  0
    3.8359   -2.9208    2.0100 H   0  0  0  0  0  0  0  0  0  0  0  0
    0.5539    0.4208    1.1369 H   0  0  0  0  0  0  0  0  0  0  0  0
    5.3871   -0.3556    0.0064 H   0  0  0  0  0  0  0  0  0  0  0  0
    1.7122    2.6608   -0.8295 H   0  0  0  0  0  0  0  0  0  0  0  0
    2.4114    6.6098    1.0281 H   0  0  0  0  0  0  0  0  0  0  0  0
    3.5007    4.9652   -0.5000 H   0  0  0  0  0  0  0  0  0  0  0  0
    7.1619    5.2584    1.7862 H   0  0  0  0  0  0  0  0  0  0  0  0
    6.0783    6.9079    3.3237 H   0  0  0  0  0  0  0  0  0  0  0  0
    5.7337    4.2324   -1.4239 H   0  0  0  0  0  0  0  0  0  0  0  0
    7.1619    4.1369   -0.3123 H   0  0  0  0  0  0  0  0  0  0  0  0
    6.5147    1.9135   -0.4294 H   0  0  0  0  0  0  0  0  0  0  0  0
    5.7832    2.4889    1.1370 H   0  0  0  0  0  0  0  0  0  0  0  0
    2.8682    7.3596    3.5448 H   0  0  0  0  0  0  0  0  0  0  0  0
    5.8431   -3.4834   -2.6089 H   0  0  0  0  0  0  0  0  0  0  0  0
  1  2  1  0
  1 25  1  0
  1 26  1  0
  2  3  1  0
  2  4  1  0
  2 27  1  6
  3  6  1  0
  3 28  1  0
  3 29  1  0
  4  5  2  0
  4 24  1  0
  6  7  1  0
  6 10  2  0
  7  8  2  0
  7  9  1  0
  9 13  2  0
  9 30  1  0
 10 11  1  0
 10 31  1  0
 11 12  2  0
 11 13  1  0
 12 22  1  0
 13 14  1  0
 14 32  1  0
 15 16  2  0
 15 20  1  0
 15 33  1  0
 16 17  1  0
 16 34  1  0
 17 18  2  0
 17 21  1  0
 18 19  1  0
 18 35  1  0
 19 20  2  0
 19 36  1  0
 20 23  1  0
 21 22  1  0
 21 37  1  0
 21 38  1  0
 22 39  1  0
 22 40  1  0
 23 41  1  0
 24 42  1  0
M  END
