
     RDKit          3D

 58 60  0  0  0  0  0  0  0  0999 V2000
   -5.8044   -2.5815    0.6005 C   0  0  0  0  0  0  0  0  0  0  0  0
   -6.4737   -1.3671   -0.0449 C   0  0  1  0  0  0  0  0  0  0  0  0
   -6.7130   -1.6207   -1.5343 C   0  0  0  0  0  0  0  0  0  0  0  0
   -7.8316   -1.1445    0.6301 C   0  0  0  0  0  0  0  0  0  0  0  0
   -5.6551   -0.0911    0.2004 C   0  0  0  0  0  0  0  0  0  0  0  0
   -4.2273   -0.0472   -0.2989 C   0  0  0  0  0  0  0  0  0  0  0  0
   -3.7445   -0.8508   -1.0878 O   0  0  0  0  0  0  0  0  0  0  0  0
   -3.4795    0.9710    0.1698 N   0  0  0  0  0  0  0  0  0  0  0  0
   -3.9054    2.0407    1.0574 C   0  0  0  0  0  0  0  0  0  0  0  0
   -2.8665    3.1276    0.8026 C   0  0  2  0  0  0  0  0  0  0  0  0
   -3.1300    3.8425   -0.3828 O   0  0  0  0  0  0  0  0  0  0  0  0
   -1.6046    2.3114    0.5794 C   0  0  0  0  0  0  0  0  0  0  0  0
   -2.0933    1.0993   -0.2289 C   0  0  1  0  0  0  0  0  0  0  0  0
   -1.2932   -0.1440    0.1372 C   0  0  0  0  0  0  0  0  0  0  0  0
   -1.4841   -0.7390    1.1847 O   0  0  0  0  0  0  0  0  0  0  0  0
   -0.3301   -0.4586   -0.7442 N   0  0  0  0  0  0  0  0  0  0  0  0
    0.6112   -1.5356   -0.5689 C   0  0  0  0  0  0  0  0  0  0  0  0
    2.0307   -1.0598   -0.3847 C   0  0  0  0  0  0  0  0  0  0  0  0
    2.3300    0.0614    0.3850 C   0  0  0  0  0  0  0  0  0  0  0  0
    3.6384    0.4750    0.5647 C   0  0  0  0  0  0  0  0  0  0  0  0
    3.0821   -1.7621   -0.9626 C   0  0  0  0  0  0  0  0  0  0  0  0
    4.3960   -1.3624   -0.7789 C   0  0  0  0  0  0  0  0  0  0  0  0
    4.6951   -0.2282   -0.0227 C   0  0  0  0  0  0  0  0  0  0  0  0
    6.0702    0.2109    0.1367 C   0  0  0  0  0  0  0  0  0  0  0  0
    6.3815    0.9587    1.2318 O   0  0  0  0  0  0  0  0  0  0  0  0
    7.6802    1.2326    1.1186 C   0  0  0  0  0  0  0  0  0  0  0  0
    8.2272    0.7414    0.0651 N   0  0  0  0  0  0  0  0  0  0  0  0
    7.2104    0.0784   -0.5942 C   0  0  0  0  0  0  0  0  0  0  0  0
    7.4401   -0.6063   -1.8938 C   0  0  0  0  0  0  0  0  0  0  0  0
   -6.4607   -3.4529    0.5427 H   0  0  0  0  0  0  0  0  0  0  0  0
   -4.8675   -2.8378    0.1095 H   0  0  0  0  0  0  0  0  0  0  0  0
   -5.5931   -2.4009    1.6574 H   0  0  0  0  0  0  0  0  0  0  0  0
   -7.4113   -2.4502   -1.6685 H   0  0  0  0  0  0  0  0  0  0  0  0
   -7.1512   -0.7441   -2.0174 H   0  0  0  0  0  0  0  0  0  0  0  0
   -5.7930   -1.8696   -2.0582 H   0  0  0  0  0  0  0  0  0  0  0  0
   -7.7188   -0.9584    1.7006 H   0  0  0  0  0  0  0  0  0  0  0  0
   -8.3574   -0.2891    0.1989 H   0  0  0  0  0  0  0  0  0  0  0  0
   -8.4703   -2.0218    0.5107 H   0  0  0  0  0  0  0  0  0  0  0  0
   -6.1834    0.7594   -0.2484 H   0  0  0  0  0  0  0  0  0  0  0  0
   -5.6516    0.1109    1.2770 H   0  0  0  0  0  0  0  0  0  0  0  0
   -4.9174    2.3823    0.8340 H   0  0  0  0  0  0  0  0  0  0  0  0
   -3.8817    1.7261    2.1055 H   0  0  0  0  0  0  0  0  0  0  0  0
   -2.7788    3.7958    1.6664 H   0  0  0  0  0  0  0  0  0  0  0  0
   -3.9833    4.2788   -0.2955 H   0  0  0  0  0  0  0  0  0  0  0  0
   -0.8224    2.8676    0.0639 H   0  0  0  0  0  0  0  0  0  0  0  0
   -1.2127    1.9945    1.5481 H   0  0  0  0  0  0  0  0  0  0  0  0
   -2.0185    1.2962   -1.3032 H   0  0  0  0  0  0  0  0  0  0  0  0
   -0.2628    0.0780   -1.5944 H   0  0  0  0  0  0  0  0  0  0  0  0
    0.2973   -2.1170    0.2984 H   0  0  0  0  0  0  0  0  0  0  0  0
    0.5595   -2.2060   -1.4292 H   0  0  0  0  0  0  0  0  0  0  0  0
    1.5337    0.6317    0.8476 H   0  0  0  0  0  0  0  0  0  0  0  0
    3.8312    1.3597    1.1573 H   0  0  0  0  0  0  0  0  0  0  0  0
    2.8766   -2.6407   -1.5623 H   0  0  0  0  0  0  0  0  0  0  0  0
    5.1905   -1.9495   -1.2196 H   0  0  0  0  0  0  0  0  0  0  0  0
    8.1381    1.8239    1.8969 H   0  0  0  0  0  0  0  0  0  0  0  0
    7.6933   -1.6597   -1.7581 H   0  0  0  0  0  0  0  0  0  0  0  0
    6.5575   -0.5624   -2.5308 H   0  0  0  0  0  0  0  0  0  0  0  0
    8.2658   -0.1356   -2.4252 H   0  0  0  0  0  0  0  0  0  0  0  0
 27 26  2  0
 27 28  1  0
 29 28  1  0
 26 25  1  0
 28 24  2  0
 25 24  1  0
 24 23  1  0
 23 20  1  0
 23 22  2  0
 20 19  2  0
 22 21  1  0
 19 18  1  0
 21 18  2  0
 18 17  1  0
 17 16  1  0
 16 14  1  0
 12 13  1  0
 12 10  1  0
 14 15  2  0
 14 13  1  0
 13  8  1  0
 10 11  1  0
 10  9  1  0
  8  9  1  0
  8  6  1  0
  7  6  2  0
  6  5  1  0
  2  3  1  6
  5  2  1  0
  2  1  1  0
  2  4  1  0
  1 30  1  0
  1 31  1  0
  1 32  1  0
  3 33  1  0
  3 34  1  0
  3 35  1  0
  4 36  1  0
  4 37  1  0
  4 38  1  0
  5 39  1  0
  5 40  1  0
  9 41  1  0
  9 42  1  0
 10 43  1  1
 11 44  1  0
 12 45  1  0
 12 46  1  0
 13 47  1  6
 16 48  1  0
 17 49  1  0
 17 50  1  0
 19 51  1  0
 20 52  1  0
 21 53  1  0
 22 54  1  0
 26 55  1  0
 29 56  1  0
 29 57  1  0
 29 58  1  0
M  END
