
     RDKit          3D

 14 13  0  0  0  0  0  0  0  0999 V2000
   -0.6912   -0.0800    0.1286 P   0  0  1  0  0  0  0  0  0  0  0  0
   -1.8207   -0.7222   -0.8176 O   0  0  0  0  0  0  0  0  0  0  0  0
   -0.6182   -0.6109    1.5097 O   0  0  0  0  0  0  0  0  0  0  0  0
    0.7841   -0.3037   -0.8897 C   0  0  0  0  0  0  0  0  0  0  0  0
   -0.9745    1.5036    0.1880 O   0  0  0  0  0  0  0  0  0  0  0  0
   -2.6805   -0.8310   -0.3880 H   0  0  0  0  0  0  0  0  0  0  0  0
    0.9653   -1.3769   -0.9817 H   0  0  0  0  0  0  0  0  0  0  0  0
    0.5795    0.0807   -1.8928 H   0  0  0  0  0  0  0  0  0  0  0  0
   -1.1112    1.9367   -0.6647 H   0  0  0  0  0  0  0  0  0  0  0  0
    1.9645    0.3902   -0.2846 C   0  0  0  0  0  0  0  0  0  0  0  0
    2.9925   -0.2377    0.2718 C   0  0  0  0  0  0  0  0  0  0  0  0
    1.9549    1.4747   -0.3143 H   0  0  0  0  0  0  0  0  0  0  0  0
    3.0467   -1.3186    0.3203 H   0  0  0  0  0  0  0  0  0  0  0  0
    3.8227    0.3116    0.6948 H   0  0  0  0  0  0  0  0  0  0  0  0
  3  1  2  0
  4  1  1  0
  1  2  1  6
  1  5  1  0
  2  6  1  0
  4  7  1  0
  4  8  1  0
  5  9  1  0
  4 10  1  0
 10 11  2  0
 10 12  1  0
 11 13  1  0
 11 14  1  0
M  END
