
     RDKit          3D

 39 40  0  0  0  0  0  0  0  0999 V2000
    0.0899    0.8465    3.0607 C   0  0  0  0  0  0  0  0  0  0  0  0
    1.3948    1.5146    2.9575 C   0  0  0  0  0  0  0  0  0  0  0  0
    1.8183    2.4538    4.0579 C   0  0  0  0  0  0  0  0  0  0  0  0
    2.1469    1.3335    2.0059 O   0  0  0  0  0  0  0  0  0  0  0  0
   -0.7188    1.0713    4.1847 C   0  0  0  0  0  0  0  0  0  0  0  0
   -1.9552    0.4899    4.3343 C   0  0  0  0  0  0  0  0  0  0  0  0
   -2.4375   -0.3707    3.3414 C   0  0  0  0  0  0  0  0  0  0  0  0
   -3.7822   -1.0143    3.4901 C   0  0  0  0  0  0  0  0  0  0  0  0
   -1.6581   -0.6207    2.2275 C   0  0  0  0  0  0  0  0  0  0  0  0
   -0.3982   -0.0237    2.0463 C   0  0  0  0  0  0  0  0  0  0  0  0
    0.3556   -0.2944    0.9420 N   0  0  0  0  0  0  0  0  0  0  0  0
   -0.1449   -0.8689   -0.2772 C   0  0  2  0  0  0  0  0  0  0  0  0
    0.0704   -2.3812   -0.4473 C   0  0  0  0  0  0  0  0  0  0  0  0
    0.3830   -3.0432    0.6679 N   0  0  0  0  0  0  0  0  0  0  0  0
   -0.1508   -2.9017   -1.5284 O   0  0  0  0  0  0  0  0  0  0  0  0
    0.3468   -0.0927   -1.4804 C   0  0  0  0  0  0  0  0  0  0  0  0
   -0.4732    0.8060   -2.1718 C   0  0  0  0  0  0  0  0  0  0  0  0
   -2.2618    1.1219   -1.6372 Br  0  0  0  0  0  0  0  0  0  0  0  0
   -0.0289    1.5277   -3.2708 C   0  0  0  0  0  0  0  0  0  0  0  0
    1.2765    1.3761   -3.7016 C   0  0  0  0  0  0  0  0  0  0  0  0
    2.1349    0.5230   -3.0306 C   0  0  0  0  0  0  0  0  0  0  0  0
    1.6659   -0.1877   -1.9374 C   0  0  0  0  0  0  0  0  0  0  0  0
    2.9154   -1.2960   -1.0513 Br  0  0  0  0  0  0  0  0  0  0  0  0
    2.7907    2.8796    3.8226 H   0  0  0  0  0  0  0  0  0  0  0  0
    1.1019    3.2656    4.1864 H   0  0  0  0  0  0  0  0  0  0  0  0
    1.8892    1.9322    5.0131 H   0  0  0  0  0  0  0  0  0  0  0  0
   -0.3644    1.7251    4.9699 H   0  0  0  0  0  0  0  0  0  0  0  0
   -2.5479    0.6907    5.2176 H   0  0  0  0  0  0  0  0  0  0  0  0
   -4.5753   -0.2680    3.4161 H   0  0  0  0  0  0  0  0  0  0  0  0
   -3.9582   -1.7665    2.7229 H   0  0  0  0  0  0  0  0  0  0  0  0
   -3.8824   -1.4905    4.4659 H   0  0  0  0  0  0  0  0  0  0  0  0
   -2.0394   -1.3178    1.4930 H   0  0  0  0  0  0  0  0  0  0  0  0
    1.2426    0.1953    0.9214 H   0  0  0  0  0  0  0  0  0  0  0  0
   -1.2345   -0.7963   -0.2678 H   0  0  0  0  0  0  0  0  0  0  0  0
    0.5291   -4.0393    0.6380 H   0  0  0  0  0  0  0  0  0  0  0  0
    0.6797   -2.5547    1.4958 H   0  0  0  0  0  0  0  0  0  0  0  0
   -0.6905    2.2081   -3.7882 H   0  0  0  0  0  0  0  0  0  0  0  0
    1.6299    1.9325   -4.5588 H   0  0  0  0  0  0  0  0  0  0  0  0
    3.1601    0.4199   -3.3585 H   0  0  0  0  0  0  0  0  0  0  0  0
  1  2  1  0
  1  5  2  0
  1 10  1  0
  2  3  1  0
  2  4  2  0
  3 24  1  0
  3 25  1  0
  3 26  1  0
  5  6  1  0
  5 27  1  0
  6  7  2  0
  6 28  1  0
  7  8  1  0
  7  9  1  0
  8 29  1  0
  8 30  1  0
  8 31  1  0
  9 10  2  0
  9 32  1  0
 10 11  1  0
 11 12  1  0
 11 33  1  0
 12 13  1  0
 12 16  1  0
 12 34  1  1
 13 14  1  0
 13 15  2  0
 14 35  1  0
 14 36  1  0
 16 17  2  0
 16 22  1  0
 17 18  1  0
 17 19  1  0
 19 20  2  0
 19 37  1  0
 20 21  1  0
 20 38  1  0
 21 22  2  0
 21 39  1  0
 22 23  1  0
M  END
