
     RDKit          3D

 29 30  0  0  0  0  0  0  0  0999 V2000
    4.7967    0.8467    0.2037 N   0  0  0  0  0  0  0  0  0  0  0  0
    0.7925   -0.9916   -0.9225 N   0  0  0  0  0  0  0  0  0  0  0  0
    3.2032    0.7675   -1.1750 C   0  0  0  0  0  0  0  0  0  0  0  0
    1.7589   -1.0761    0.0123 C   0  0  0  0  0  0  0  0  0  0  0  0
   -0.4224   -1.7753   -0.8996 C   0  0  0  0  0  0  0  0  0  0  0  0
   -1.5900   -1.0200   -0.3153 C   0  0  0  0  0  0  0  0  0  0  0  0
   -1.6429   -0.7356    1.0480 C   0  0  0  0  0  0  0  0  0  0  0  0
   -3.7177    0.4149    0.7499 C   0  0  0  0  0  0  0  0  0  0  0  0
    6.0457    1.3071    0.7631 C   0  0  0  0  0  0  0  0  0  0  0  0
   -3.6925    0.1440   -0.6072 C   0  0  0  0  0  0  0  0  0  0  0  0
   -2.6240   -0.5740   -1.1292 C   0  0  0  0  0  0  0  0  0  0  0  0
    3.9706   -0.0751    0.7039 C   0  0  0  0  0  0  0  0  0  0  0  0
    2.9002   -0.1686   -0.1660 C   0  0  0  0  0  0  0  0  0  0  0  0
   -2.6998   -0.0201    1.5871 C   0  0  0  0  0  0  0  0  0  0  0  0
    4.3480    1.3709   -0.9374 N   0  0  0  0  0  0  0  0  0  0  0  0
    1.7147   -1.8608    0.9536 O   0  0  0  0  0  0  0  0  0  0  0  0
   -5.0456    1.3078    1.4191 Cl  0  0  0  0  0  0  0  0  0  0  0  0
    0.8545   -0.2752   -1.6269 H   0  0  0  0  0  0  0  0  0  0  0  0
    2.6395    1.0218   -2.0611 H   0  0  0  0  0  0  0  0  0  0  0  0
   -0.6532   -2.0774   -1.9217 H   0  0  0  0  0  0  0  0  0  0  0  0
   -0.2352   -2.6864   -0.3331 H   0  0  0  0  0  0  0  0  0  0  0  0
   -0.8516   -1.0798    1.7024 H   0  0  0  0  0  0  0  0  0  0  0  0
    6.8460    1.1845    0.0371 H   0  0  0  0  0  0  0  0  0  0  0  0
    5.9710    2.3559    1.0429 H   0  0  0  0  0  0  0  0  0  0  0  0
    6.2756    0.7199    1.6468 H   0  0  0  0  0  0  0  0  0  0  0  0
   -4.4897    0.4849   -1.2537 H   0  0  0  0  0  0  0  0  0  0  0  0
   -2.6044   -0.7869   -2.1913 H   0  0  0  0  0  0  0  0  0  0  0  0
    4.1818   -0.5945    1.6244 H   0  0  0  0  0  0  0  0  0  0  0  0
   -2.7318    0.1925    2.6472 H   0  0  0  0  0  0  0  0  0  0  0  0
 15  1  1  0
 15  3  2  0
  9  1  1  0
  1 12  1  0
  3 13  1  0
 12 13  2  0
 13  4  1  0
  4  2  1  0
  4 16  2  0
  2  5  1  0
  5  6  1  0
  6 11  1  0
  6  7  2  0
 11 10  2  0
  7 14  1  0
 10  8  1  0
 14  8  2  0
  8 17  1  0
  2 18  1  0
  3 19  1  0
  5 20  1  0
  5 21  1  0
  7 22  1  0
  9 23  1  0
  9 24  1  0
  9 25  1  0
 10 26  1  0
 11 27  1  0
 12 28  1  0
 14 29  1  0
M  END
