
     RDKit          3D

 49 52  0  0  0  0  0  0  0  0999 V2000
    5.1396    0.3885    0.3708 N   0  0  0  0  0  0  0  0  0  0  0  0
   -3.8528    0.4659    0.2842 N   0  0  0  0  0  0  0  0  0  0  0  0
    3.9712    2.5941   -0.1202 C   0  0  0  0  0  0  0  0  0  0  0  0
    2.6923    3.0826   -0.3506 C   0  0  0  0  0  0  0  0  0  0  0  0
    1.6653    0.8994   -0.1330 C   0  0  0  0  0  0  0  0  0  0  0  0
    3.3209   -0.9210    0.3763 C   0  0  0  0  0  0  0  0  0  0  0  0
    4.6777   -0.9012    0.5283 C   0  0  0  0  0  0  0  0  0  0  0  0
   -0.6748    0.1912    0.1232 C   0  0  0  0  0  0  0  0  0  0  0  0
   -1.2938   -1.9910   -0.8159 C   0  0  0  0  0  0  0  0  0  0  0  0
    2.2497   -1.9560    0.4540 C   0  0  0  0  0  0  0  0  0  0  0  0
   -3.6579    0.5660    1.7246 C   0  0  0  0  0  0  0  0  0  0  0  0
   -4.7681    2.5398   -0.7155 C   0  0  0  0  0  0  0  0  0  0  0  0
   -0.0411   -2.4904   -0.2796 N   0  0  0  0  0  0  0  0  0  0  0  0
    0.2783   -3.7775   -0.8656 C   0  0  0  0  0  0  0  0  0  0  0  0
    1.0493   -1.5389   -0.4330 C   0  0  1  0  0  0  0  0  0  0  0  0
    2.9476    0.4148    0.1041 C   0  0  0  0  0  0  0  0  0  0  0  0
    4.0906    1.2229    0.1091 C   0  0  0  0  0  0  0  0  0  0  0  0
    1.5503    2.2619   -0.3669 C   0  0  0  0  0  0  0  0  0  0  0  0
    0.5986   -0.1141   -0.1283 C   0  0  0  0  0  0  0  0  0  0  0  0
   -1.7756   -0.8246    0.0323 C   0  0  2  0  0  0  0  0  0  0  0  0
   -3.0202   -0.1732   -0.5609 C   0  0  0  0  0  0  0  0  0  0  0  0
   -3.2310   -0.2163   -1.7674 O   0  0  0  0  0  0  0  0  0  0  0  0
   -5.0410    1.1181   -0.2510 C   0  0  0  0  0  0  0  0  0  0  0  0
   -4.3406   -0.5545    2.4935 C   0  0  0  0  0  0  0  0  0  0  0  0
    6.1070    0.6576    0.4323 H   0  0  0  0  0  0  0  0  0  0  0  0
    4.8270    3.2565   -0.1252 H   0  0  0  0  0  0  0  0  0  0  0  0
    2.5687    4.1418   -0.5373 H   0  0  0  0  0  0  0  0  0  0  0  0
    5.3707   -1.7004    0.7403 H   0  0  0  0  0  0  0  0  0  0  0  0
   -0.9354    1.2135    0.3792 H   0  0  0  0  0  0  0  0  0  0  0  0
   -1.2011   -1.6854   -1.8679 H   0  0  0  0  0  0  0  0  0  0  0  0
   -2.0288   -2.7976   -0.7801 H   0  0  0  0  0  0  0  0  0  0  0  0
    2.6267   -2.9316    0.1461 H   0  0  0  0  0  0  0  0  0  0  0  0
    1.8852   -2.0671    1.4806 H   0  0  0  0  0  0  0  0  0  0  0  0
   -2.5974    0.6016    1.9675 H   0  0  0  0  0  0  0  0  0  0  0  0
   -4.0581    1.5304    2.0418 H   0  0  0  0  0  0  0  0  0  0  0  0
   -5.6896    3.0076   -1.0634 H   0  0  0  0  0  0  0  0  0  0  0  0
   -4.3707    3.1525    0.0950 H   0  0  0  0  0  0  0  0  0  0  0  0
   -4.0521    2.5550   -1.5367 H   0  0  0  0  0  0  0  0  0  0  0  0
    1.1317   -4.2389   -0.3717 H   0  0  0  0  0  0  0  0  0  0  0  0
   -0.5663   -4.4552   -0.7416 H   0  0  0  0  0  0  0  0  0  0  0  0
    0.5059   -3.7157   -1.9408 H   0  0  0  0  0  0  0  0  0  0  0  0
    1.4129   -1.5322   -1.4796 H   0  0  0  0  0  0  0  0  0  0  0  0
    0.5879    2.7075   -0.5877 H   0  0  0  0  0  0  0  0  0  0  0  0
   -2.0007   -1.2159    1.0302 H   0  0  0  0  0  0  0  0  0  0  0  0
   -5.4434    0.5218   -1.0684 H   0  0  0  0  0  0  0  0  0  0  0  0
   -5.7974    1.1204    0.5353 H   0  0  0  0  0  0  0  0  0  0  0  0
   -5.4153   -0.5646    2.3088 H   0  0  0  0  0  0  0  0  0  0  0  0
   -3.9413   -1.5292    2.2100 H   0  0  0  0  0  0  0  0  0  0  0  0
   -4.1859   -0.4264    3.5649 H   0  0  0  0  0  0  0  0  0  0  0  0
 14 13  1  0
  7  6  2  0
  7  1  1  0
 10  6  1  0
 10 15  1  0
  6 16  1  0
  1 17  1  0
 13 15  1  0
 13  9  1  0
 15 19  1  0
 16 17  2  0
 16  5  1  0
  9 20  1  0
 17  3  1  0
 19  5  1  0
 19  8  2  0
  5 18  2  0
  3  4  2  0
 20  8  1  0
 20 21  1  0
 11  2  1  0
 11 24  1  0
 18  4  1  0
 21  2  1  0
 21 22  2  0
  2 23  1  0
 12 23  1  0
  1 25  1  0
  3 26  1  0
  4 27  1  0
  7 28  1  0
  8 29  1  0
  9 30  1  0
  9 31  1  0
 10 32  1  0
 10 33  1  0
 11 34  1  0
 11 35  1  0
 12 36  1  0
 12 37  1  0
 12 38  1  0
 14 39  1  0
 14 40  1  0
 14 41  1  0
 15 42  1  6
 18 43  1  0
 20 44  1  1
 23 45  1  0
 23 46  1  0
 24 47  1  0
 24 48  1  0
 24 49  1  0
M  END
