
     RDKit          3D

 25 25  0  0  0  0  0  0  0  0999 V2000
    1.0370    1.2437    2.9340 N   0  0  0  0  0  0  0  0  0  0  0  0
   -0.0905    0.3468    3.0147 C   0  0  2  0  0  0  0  0  0  0  0  0
   -0.0414   -0.4096    4.3369 C   0  0  0  0  0  0  0  0  0  0  0  0
    0.8553   -1.1272    4.7855 O   0  0  0  0  0  0  0  0  0  0  0  0
   -0.2006   -0.7261    1.9127 C   0  0  0  0  0  0  0  0  0  0  0  0
   -0.2672   -0.1544    0.5546 C   0  0  0  0  0  0  0  0  0  0  0  0
   -0.9081    1.0656    0.2291 N   0  0  0  0  0  0  0  0  0  0  0  0
    0.2797   -0.7117   -0.6074 C   0  0  0  0  0  0  0  0  0  0  0  0
   -0.7457    1.2267   -1.0881 C   0  0  0  0  0  0  0  0  0  0  0  0
   -0.0203    0.1649   -1.6689 N   0  0  0  0  0  0  0  0  0  0  0  0
    0.4325   -0.1181   -3.1623 P   0  0  1  0  0  0  0  0  0  0  0  0
   -0.8487   -0.1405   -4.1354 O   0  0  0  0  0  0  0  0  0  0  0  0
    1.0154    1.2467   -3.7684 O   0  0  0  0  0  0  0  0  0  0  0  0
    1.2064   -1.3313   -3.3903 O   0  0  0  0  0  0  0  0  0  0  0  0
   -1.1552   -0.2470    5.0983 O   0  0  0  0  0  0  0  0  0  0  0  0
    0.8791    1.9470    2.2409 H   0  0  0  0  0  0  0  0  0  0  0  0
    1.8846    0.7482    2.7388 H   0  0  0  0  0  0  0  0  0  0  0  0
   -1.0320    0.9771    3.0027 H   0  0  0  0  0  0  0  0  0  0  0  0
    0.6772   -1.4252    1.9765 H   0  0  0  0  0  0  0  0  0  0  0  0
   -1.1323   -1.3280    2.1004 H   0  0  0  0  0  0  0  0  0  0  0  0
    0.8451   -1.6279   -0.7961 H   0  0  0  0  0  0  0  0  0  0  0  0
   -1.1250    2.0791   -1.6691 H   0  0  0  0  0  0  0  0  0  0  0  0
   -1.0504   -0.9634   -4.5739 H   0  0  0  0  0  0  0  0  0  0  0  0
    0.6148    1.5560   -4.5794 H   0  0  0  0  0  0  0  0  0  0  0  0
   -1.0638   -0.7513    5.9242 H   0  0  0  0  0  0  0  0  0  0  0  0
  1  2  1  0
  1 16  1  0
  1 17  1  0
  2  3  1  0
  2  5  1  0
  2 18  1  1
  3  4  2  0
  3 15  1  0
  5  6  1  0
  5 19  1  0
  5 20  1  0
  6  7  1  0
  6  8  2  0
  7  9  2  0
  8 10  1  0
  8 21  1  0
  9 10  1  0
  9 22  1  0
 10 11  1  0
 11 12  1  6
 11 13  1  0
 11 14  2  0
 12 23  1  0
 13 24  1  0
 15 25  1  0
M  END
