
     RDKit          3D

 63 64  0  0  0  0  0  0  0  0999 V2000
    1.8213    2.5319   -0.6782 C   0  0  0  0  0  0  0  0  0  0  0  0
   -1.8849    3.9205    0.6943 C   0  0  0  0  0  0  0  0  0  0  0  0
   -0.9451   -4.1826   -0.6082 C   0  0  0  0  0  0  0  0  0  0  0  0
   -3.8356   -0.4365   -0.4808 C   0  0  0  0  0  0  0  0  0  0  0  0
   -5.1582    1.7252   -0.4777 C   0  0  0  0  0  0  0  0  0  0  0  0
   -0.2832    2.1106    0.5526 C   0  0  0  0  0  0  0  0  0  0  0  0
   -0.9496    1.3724    1.5020 C   0  0  0  0  0  0  0  0  0  0  0  0
   -0.3590    0.2333    2.0696 C   0  0  0  0  0  0  0  0  0  0  0  0
    0.8769   -0.1991    1.6789 C   0  0  0  0  0  0  0  0  0  0  0  0
    1.6098    0.5258    0.7100 C   0  0  0  0  0  0  0  0  0  0  0  0
    1.0433    1.7196    0.1784 C   0  0  0  0  0  0  0  0  0  0  0  0
    2.8989    0.1440    0.2294 C   0  0  0  0  0  0  0  0  0  0  0  0
    3.6018    0.9249   -0.6491 C   0  0  0  0  0  0  0  0  0  0  0  0
    3.0702    2.1507   -1.0791 C   0  0  0  0  0  0  0  0  0  0  0  0
   -0.8445    3.2457   -0.0515 N   0  0  0  0  0  0  0  0  0  0  0  0
   -1.2177    3.0654   -1.4474 C   0  0  0  0  0  0  0  0  0  0  0  0
    3.6527   -1.3953    0.7173 S   0  0  1  0  0  0  0  0  0  0  0  0
    4.8775   -1.5452   -0.0512 O   0  0  0  0  0  0  0  0  0  0  0  0
    3.7142   -1.4615    2.1689 O   0  0  0  0  0  0  0  0  0  0  0  0
    2.6422   -2.5944    0.2308 N   0  0  0  0  0  0  0  0  0  0  0  0
    2.3557   -2.7361   -1.1959 C   0  0  0  0  0  0  0  0  0  0  0  0
    1.2519   -3.7572   -1.3624 C   0  0  0  0  0  0  0  0  0  0  0  0
    0.1256   -3.2738   -0.6779 O   0  0  0  0  0  0  0  0  0  0  0  0
   -3.4170   -1.6546    0.3158 C   0  0  0  0  0  0  0  0  0  0  0  0
   -4.7209    0.5067    0.3233 C   0  0  0  0  0  0  0  0  0  0  0  0
    1.4249    3.4841   -1.0020 H   0  0  0  0  0  0  0  0  0  0  0  0
   -1.5549    4.1184    1.7132 H   0  0  0  0  0  0  0  0  0  0  0  0
   -2.0972    4.8756    0.2146 H   0  0  0  0  0  0  0  0  0  0  0  0
   -2.8324    3.3655    0.7439 H   0  0  0  0  0  0  0  0  0  0  0  0
   -1.3085   -4.4413   -1.6124 H   0  0  0  0  0  0  0  0  0  0  0  0
   -0.6378   -5.1202   -0.1260 H   0  0  0  0  0  0  0  0  0  0  0  0
   -2.9385    0.0982   -0.8100 H   0  0  0  0  0  0  0  0  0  0  0  0
   -4.3646   -0.7527   -1.3852 H   0  0  0  0  0  0  0  0  0  0  0  0
   -4.2731    2.2277   -0.8840 H   0  0  0  0  0  0  0  0  0  0  0  0
   -5.7400    1.4011   -1.3473 H   0  0  0  0  0  0  0  0  0  0  0  0
   -1.9466    1.6497    1.8150 H   0  0  0  0  0  0  0  0  0  0  0  0
   -0.9067   -0.3249    2.8176 H   0  0  0  0  0  0  0  0  0  0  0  0
    1.2902   -1.0689    2.1648 H   0  0  0  0  0  0  0  0  0  0  0  0
    4.5737    0.6173   -1.0073 H   0  0  0  0  0  0  0  0  0  0  0  0
    3.6549    2.7855   -1.7301 H   0  0  0  0  0  0  0  0  0  0  0  0
   -1.4543    4.0329   -1.8903 H   0  0  0  0  0  0  0  0  0  0  0  0
   -0.4076    2.6245   -2.0238 H   0  0  0  0  0  0  0  0  0  0  0  0
   -2.0952    2.4155   -1.5581 H   0  0  0  0  0  0  0  0  0  0  0  0
    2.0459   -1.7888   -1.6522 H   0  0  0  0  0  0  0  0  0  0  0  0
    3.2469   -3.0859   -1.7148 H   0  0  0  0  0  0  0  0  0  0  0  0
    1.0513   -3.8916   -2.4327 H   0  0  0  0  0  0  0  0  0  0  0  0
    1.5734   -4.7281   -0.9620 H   0  0  0  0  0  0  0  0  0  0  0  0
   -2.8968   -1.3404    1.2333 H   0  0  0  0  0  0  0  0  0  0  0  0
   -4.3059   -2.2189    0.6364 H   0  0  0  0  0  0  0  0  0  0  0  0
   -5.6063   -0.0284    0.6828 H   0  0  0  0  0  0  0  0  0  0  0  0
   -4.1829    0.8346    1.2202 H   0  0  0  0  0  0  0  0  0  0  0  0
   -2.0529   -3.5657    0.2069 C   0  0  0  0  0  0  0  0  0  0  0  0
   -2.5708   -2.4536   -0.4737 O   0  0  0  0  0  0  0  0  0  0  0  0
   -5.9711    2.7245    0.3346 C   0  0  0  0  0  0  0  0  0  0  0  0
   -6.3625    3.9557   -0.4700 C   0  0  0  0  0  0  0  0  0  0  0  0
    1.8079   -2.6540    0.8065 H   0  0  0  0  0  0  0  0  0  0  0  0
   -2.8262   -4.3275    0.3790 H   0  0  0  0  0  0  0  0  0  0  0  0
   -1.6615   -3.2771    1.1930 H   0  0  0  0  0  0  0  0  0  0  0  0
   -6.8698    2.2339    0.7205 H   0  0  0  0  0  0  0  0  0  0  0  0
   -5.3924    3.0290    1.2131 H   0  0  0  0  0  0  0  0  0  0  0  0
   -6.9698    3.6847   -1.3357 H   0  0  0  0  0  0  0  0  0  0  0  0
   -6.9372    4.6626    0.1293 H   0  0  0  0  0  0  0  0  0  0  0  0
   -5.4790    4.4784   -0.8425 H   0  0  0  0  0  0  0  0  0  0  0  0
  5 25  1  0
  4 25  1  0
  4 24  1  0
 14  1  2  0
 14 13  1  0
  1 11  1  0
 16 15  1  0
 13 12  2  0
 15  2  1  0
 15  6  1  0
 11  6  2  0
 11 10  1  0
 12 10  1  0
 12 17  1  0
 17 20  1  6
 20 21  1  0
  6  7  1  0
 22 21  1  0
 22 23  1  0
 10  9  2  0
  3 23  1  0
 19 17  2  0
 17 18  2  0
  7  8  2  0
  9  8  1  0
  1 26  1  0
  2 27  1  0
  2 28  1  0
  2 29  1  0
  3 30  1  0
  3 31  1  0
  4 32  1  0
  4 33  1  0
  5 34  1  0
  5 35  1  0
  7 36  1  0
  8 37  1  0
  9 38  1  0
 13 39  1  0
 14 40  1  0
 16 41  1  0
 16 42  1  0
 16 43  1  0
 21 44  1  0
 21 45  1  0
 22 46  1  0
 22 47  1  0
 24 48  1  0
 24 49  1  0
 25 50  1  0
 25 51  1  0
  3 52  1  0
 52 53  1  0
 53 24  1  0
  5 54  1  0
 54 55  1  0
 20 56  1  0
 52 57  1  0
 52 58  1  0
 54 59  1  0
 54 60  1  0
 55 61  1  0
 55 62  1  0
 55 63  1  0
M  END
