
     RDKit          3D

 37 39  0  0  0  0  0  0  0  0999 V2000
   -3.0127    0.0573   -0.2327 C   0  0  0  0  0  0  0  0  0  0  0  0
   -2.6520   -2.2683   -0.4839 O   0  0  0  0  0  0  0  0  0  0  0  0
   -2.6206    1.2430    0.4001 C   0  0  0  0  0  0  0  0  0  0  0  0
    0.5579   -0.1333    2.4563 O   0  0  0  0  0  0  0  0  0  0  0  0
   -3.4114    2.3724    0.3624 C   0  0  0  0  0  0  0  0  0  0  0  0
   -4.6245    2.3289   -0.3220 C   0  0  0  0  0  0  0  0  0  0  0  0
   -5.0509    1.1653   -0.9301 C   0  0  0  0  0  0  0  0  0  0  0  0
   -2.1782   -1.1616   -0.2334 C   0  0  0  0  0  0  0  0  0  0  0  0
   -4.2666    0.0108   -0.8740 C   0  0  0  0  0  0  0  0  0  0  0  0
   -4.7433   -1.0958   -1.4446 O   0  0  0  0  0  0  0  0  0  0  0  0
   -0.8640   -0.9887    0.0410 N   0  0  0  0  0  0  0  0  0  0  0  0
   -0.0519   -2.0564    0.1294 N   0  0  0  0  0  0  0  0  0  0  0  0
    1.1843   -1.8657    0.3635 C   0  0  0  0  0  0  0  0  0  0  0  0
    1.8951   -0.5924    0.5912 C   0  0  0  0  0  0  0  0  0  0  0  0
    1.5794    0.2227    1.6603 C   0  0  0  0  0  0  0  0  0  0  0  0
    2.3244    1.3972    1.9166 C   0  0  0  0  0  0  0  0  0  0  0  0
    3.3747    1.7331    1.1164 C   0  0  0  0  0  0  0  0  0  0  0  0
    3.7410    0.9261    0.0141 C   0  0  0  0  0  0  0  0  0  0  0  0
    2.9928   -0.2489   -0.2511 C   0  0  0  0  0  0  0  0  0  0  0  0
    4.8245    1.2713   -0.8233 C   0  0  0  0  0  0  0  0  0  0  0  0
    5.1632    0.4828   -1.8894 C   0  0  0  0  0  0  0  0  0  0  0  0
    4.4201   -0.6823   -2.1590 C   0  0  0  0  0  0  0  0  0  0  0  0
    3.3604   -1.0381   -1.3662 C   0  0  0  0  0  0  0  0  0  0  0  0
   -1.6972    1.2818    0.9648 H   0  0  0  0  0  0  0  0  0  0  0  0
    0.4416    0.5035    3.1709 H   0  0  0  0  0  0  0  0  0  0  0  0
   -3.0942    3.2752    0.8653 H   0  0  0  0  0  0  0  0  0  0  0  0
   -5.2508    3.2101   -0.3687 H   0  0  0  0  0  0  0  0  0  0  0  0
   -6.0028    1.1287   -1.4449 H   0  0  0  0  0  0  0  0  0  0  0  0
   -4.1279   -1.8304   -1.2261 H   0  0  0  0  0  0  0  0  0  0  0  0
   -0.4745   -0.0544    0.0569 H   0  0  0  0  0  0  0  0  0  0  0  0
    1.7770   -2.7753    0.3805 H   0  0  0  0  0  0  0  0  0  0  0  0
    2.0581    2.0245    2.7594 H   0  0  0  0  0  0  0  0  0  0  0  0
    3.9404    2.6330    1.3239 H   0  0  0  0  0  0  0  0  0  0  0  0
    5.3823    2.1749   -0.6085 H   0  0  0  0  0  0  0  0  0  0  0  0
    5.9936    0.7534   -2.5279 H   0  0  0  0  0  0  0  0  0  0  0  0
    4.6861   -1.3010   -3.0063 H   0  0  0  0  0  0  0  0  0  0  0  0
    2.7963   -1.9300   -1.6089 H   0  0  0  0  0  0  0  0  0  0  0  0
 17 16  1  0
 17 18  2  0
 20 18  1  0
 20 21  2  0
 16 15  2  0
 18 19  1  0
 21 22  1  0
 15  4  1  0
 15 14  1  0
 19 14  2  0
 19 23  1  0
  6  7  2  0
  6  5  1  0
 22 23  2  0
  7  9  1  0
  5  3  2  0
 14 13  1  0
  9 10  1  0
  9  1  2  0
  3  1  1  0
  1  8  1  0
  2  8  2  0
  8 11  1  0
 13 12  2  0
 11 12  1  0
  3 24  1  0
  4 25  1  0
  5 26  1  0
  6 27  1  0
  7 28  1  0
 10 29  1  0
 11 30  1  0
 13 31  1  0
 16 32  1  0
 17 33  1  0
 20 34  1  0
 21 35  1  0
 22 36  1  0
 23 37  1  0
M  END
