
     RDKit          3D

 54 58  0  0  0  0  0  0  0  0999 V2000
    0.4093    2.0275   -1.2264 C   0  0  0  0  0  0  0  0  0  0  0  0
    1.5189    2.1207    0.8997 C   0  0  0  0  0  0  0  0  0  0  0  0
    1.4436    3.5053    0.8773 C   0  0  0  0  0  0  0  0  0  0  0  0
    0.8441    4.1570   -0.1936 C   0  0  0  0  0  0  0  0  0  0  0  0
    0.3253    3.4131   -1.2446 C   0  0  0  0  0  0  0  0  0  0  0  0
   -5.5974    0.2885    1.2325 C   0  0  0  0  0  0  0  0  0  0  0  0
   -3.9357    1.6917   -0.7494 C   0  0  0  0  0  0  0  0  0  0  0  0
   -3.5369    0.3170   -0.2197 C   0  0  2  0  0  0  0  0  0  0  0  0
   -5.4469    1.8940   -0.6935 C   0  0  0  0  0  0  0  0  0  0  0  0
   -5.9963    1.6641    0.7108 C   0  0  0  0  0  0  0  0  0  0  0  0
   -4.0846    0.1000    1.1917 C   0  0  0  0  0  0  0  0  0  0  0  0
   -0.0113   -1.0277   -0.2131 C   0  0  0  0  0  0  0  0  0  0  0  0
    0.5197   -2.3176   -0.1379 C   0  0  0  0  0  0  0  0  0  0  0  0
   -1.4265   -0.9748   -0.2704 C   0  0  0  0  0  0  0  0  0  0  0  0
   -2.1212   -2.1063   -0.3296 N   0  0  0  0  0  0  0  0  0  0  0  0
    1.0843   -0.1058   -0.1365 C   0  0  0  0  0  0  0  0  0  0  0  0
   -1.4685   -3.2781   -0.3000 C   0  0  0  0  0  0  0  0  0  0  0  0
   -2.2434   -4.3867   -0.4319 N   0  0  0  0  0  0  0  0  0  0  0  0
   -0.1595   -3.4633   -0.1811 N   0  0  0  0  0  0  0  0  0  0  0  0
    2.2230   -0.8676   -0.0161 C   0  0  0  0  0  0  0  0  0  0  0  0
    1.0058    1.3623   -0.1532 C   0  0  0  0  0  0  0  0  0  0  0  0
    5.4556    0.9897   -0.4998 C   0  0  0  0  0  0  0  0  0  0  0  0
    6.3251    0.2481    0.2911 C   0  0  0  0  0  0  0  0  0  0  0  0
    4.1224    0.6275   -0.6062 C   0  0  0  0  0  0  0  0  0  0  0  0
    5.8472   -0.8610    0.9758 C   0  0  0  0  0  0  0  0  0  0  0  0
    4.5113   -1.2215    0.8779 C   0  0  0  0  0  0  0  0  0  0  0  0
    3.6275   -0.4800    0.0883 C   0  0  0  0  0  0  0  0  0  0  0  0
    1.8596   -2.2011   -0.0050 N   0  0  0  0  0  0  0  0  0  0  0  0
   -3.5762    1.8126   -1.7746 H   0  0  0  0  0  0  0  0  0  0  0  0
   -5.6938    2.8999   -1.0406 H   0  0  0  0  0  0  0  0  0  0  0  0
   -5.9298    1.2011   -1.3906 H   0  0  0  0  0  0  0  0  0  0  0  0
   -3.9630   -0.4459   -0.8777 H   0  0  0  0  0  0  0  0  0  0  0  0
   -7.0834    1.7734    0.7126 H   0  0  0  0  0  0  0  0  0  0  0  0
   -5.6036    2.4340    1.3840 H   0  0  0  0  0  0  0  0  0  0  0  0
   -5.9619    0.1443    2.2523 H   0  0  0  0  0  0  0  0  0  0  0  0
   -6.0754   -0.4852    0.6215 H   0  0  0  0  0  0  0  0  0  0  0  0
   -3.6045    0.8140    1.8703 H   0  0  0  0  0  0  0  0  0  0  0  0
   -3.8159   -0.8991    1.5415 H   0  0  0  0  0  0  0  0  0  0  0  0
   -3.2263   -4.2841   -0.2472 H   0  0  0  0  0  0  0  0  0  0  0  0
   -1.8402   -5.2665   -0.1580 H   0  0  0  0  0  0  0  0  0  0  0  0
    4.1547   -2.0771    1.4385 H   0  0  0  0  0  0  0  0  0  0  0  0
    3.4641    1.1997   -1.2458 H   0  0  0  0  0  0  0  0  0  0  0  0
    6.5128   -1.4445    1.5982 H   0  0  0  0  0  0  0  0  0  0  0  0
    7.3665    0.5310    0.3705 H   0  0  0  0  0  0  0  0  0  0  0  0
    5.8201    1.8501   -1.0459 H   0  0  0  0  0  0  0  0  0  0  0  0
    1.9764    1.6188    1.7428 H   0  0  0  0  0  0  0  0  0  0  0  0
    0.0188    1.4567   -2.0606 H   0  0  0  0  0  0  0  0  0  0  0  0
    1.8484    4.0765    1.7028 H   0  0  0  0  0  0  0  0  0  0  0  0
    0.7810    5.2374   -0.2077 H   0  0  0  0  0  0  0  0  0  0  0  0
   -0.1424    3.9092   -2.0851 H   0  0  0  0  0  0  0  0  0  0  0  0
    2.5026   -2.9768   -0.0104 H   0  0  0  0  0  0  0  0  0  0  0  0
   -2.0941    0.1892   -0.2711 N   0  0  0  0  0  0  0  0  0  0  0  0
   -3.4443    2.4666   -0.1484 H   0  0  0  0  0  0  0  0  0  0  0  0
   -1.5583    1.0278   -0.1132 H   0  0  0  0  0  0  0  0  0  0  0  0
  7  9  1  0
  7  8  1  0
  9 10  1  0
 10  6  1  0
  6 11  1  0
 11  8  1  0
  8 52  1  0
 52 14  1  0
 14 12  1  0
 14 15  2  0
 12 13  2  0
 12 16  1  0
 15 17  1  0
 17 18  1  0
 17 19  2  0
 19 13  1  0
 13 28  1  0
 28 20  1  0
 20 27  1  0
 20 16  2  0
 27 26  1  0
 27 24  2  0
 26 25  2  0
 25 23  1  0
 23 22  2  0
 22 24  1  0
 16 21  1  0
 21  2  1  0
 21  1  2  0
  2  3  2  0
  3  4  1  0
  4  5  2  0
  5  1  1  0
  7 53  1  0
  7 29  1  0
  9 30  1  0
  9 31  1  0
  8 32  1  6
 10 33  1  0
 10 34  1  0
  6 35  1  0
  6 36  1  0
 11 37  1  0
 11 38  1  0
 52 54  1  0
 18 39  1  0
 18 40  1  0
 26 41  1  0
 24 42  1  0
 25 43  1  0
 23 44  1  0
 22 45  1  0
  2 46  1  0
  1 47  1  0
  3 48  1  0
  4 49  1  0
  5 50  1  0
 28 51  1  0
M  END
