
     RDKit          3D

 54 58  0  0  0  0  0  0  0  0999 V2000
    5.3768   -0.5235   -0.3930 C   0  0  0  0  0  0  0  0  0  0  0  0
    6.5719    0.1373   -0.1811 C   0  0  0  0  0  0  0  0  0  0  0  0
    7.7491    0.1628   -1.4534 Cl  0  0  0  0  0  0  0  0  0  0  0  0
    6.8486    0.7790    1.0155 C   0  0  0  0  0  0  0  0  0  0  0  0
    5.8868    0.7333    2.0128 C   0  0  0  0  0  0  0  0  0  0  0  0
    4.6787    0.0749    1.8354 C   0  0  0  0  0  0  0  0  0  0  0  0
    4.4153   -0.5577    0.6196 C   0  0  0  0  0  0  0  0  0  0  0  0
    3.2443   -1.2656    0.3394 N   0  0  0  0  0  0  0  0  0  0  0  0
    2.0445   -1.1941    0.9749 C   0  0  0  0  0  0  0  0  0  0  0  0
    1.8197   -0.4528    1.9145 O   0  0  0  0  0  0  0  0  0  0  0  0
    0.9856   -2.0872    0.4182 C   0  0  0  0  0  0  0  0  0  0  0  0
   -0.3366   -1.7024    0.6071 C   0  0  0  0  0  0  0  0  0  0  0  0
    1.2618   -3.2877   -0.2298 C   0  0  0  0  0  0  0  0  0  0  0  0
    0.2191   -4.0738   -0.6907 C   0  0  0  0  0  0  0  0  0  0  0  0
   -1.1083   -3.6833   -0.5533 C   0  0  0  0  0  0  0  0  0  0  0  0
   -2.2168   -4.5378   -1.0883 C   0  0  0  0  0  0  0  0  0  0  0  0
   -1.3754   -2.4729    0.1016 C   0  0  0  0  0  0  0  0  0  0  0  0
   -2.7154   -2.0850    0.2627 N   0  0  0  0  0  0  0  0  0  0  0  0
   -3.2267   -0.8422    0.1313 C   0  0  0  0  0  0  0  0  0  0  0  0
   -2.4355    0.1713   -0.1761 N   0  0  0  0  0  0  0  0  0  0  0  0
   -4.6062   -0.6019    0.3039 C   0  0  0  0  0  0  0  0  0  0  0  0
   -5.8001   -1.2950    0.6050 C   0  0  0  0  0  0  0  0  0  0  0  0
   -6.8144   -0.4666    0.6153 N   0  0  0  0  0  0  0  0  0  0  0  0
   -6.3357    0.7555    0.3336 N   0  0  0  0  0  0  0  0  0  0  0  0
   -7.2179    1.8924    0.2554 C   0  0  0  0  0  0  0  0  0  0  0  0
   -5.0062    0.7260    0.1335 C   0  0  0  0  0  0  0  0  0  0  0  0
   -4.2103    1.7530   -0.1657 N   0  0  0  0  0  0  0  0  0  0  0  0
   -2.9468    1.4021   -0.3042 C   0  0  0  0  0  0  0  0  0  0  0  0
   -1.9757    2.4673   -0.6296 C   0  0  0  0  0  0  0  0  0  0  0  0
   -0.6172    2.1931   -0.7644 C   0  0  0  0  0  0  0  0  0  0  0  0
    0.2522    3.2282   -1.0602 C   0  0  0  0  0  0  0  0  0  0  0  0
   -0.2659    4.5053   -1.2141 C   0  0  0  0  0  0  0  0  0  0  0  0
   -1.5594    4.7841   -1.0907 N   0  0  0  0  0  0  0  0  0  0  0  0
   -2.3866    3.7886   -0.8056 C   0  0  0  0  0  0  0  0  0  0  0  0
    5.1862   -1.0108   -1.3413 H   0  0  0  0  0  0  0  0  0  0  0  0
    7.7859    1.2959    1.1674 H   0  0  0  0  0  0  0  0  0  0  0  0
    6.0837    1.2210    2.9584 H   0  0  0  0  0  0  0  0  0  0  0  0
    3.9653    0.0561    2.6417 H   0  0  0  0  0  0  0  0  0  0  0  0
    3.2717   -1.8030   -0.5137 H   0  0  0  0  0  0  0  0  0  0  0  0
   -0.5544   -0.7929    1.1451 H   0  0  0  0  0  0  0  0  0  0  0  0
    2.2768   -3.6417   -0.3588 H   0  0  0  0  0  0  0  0  0  0  0  0
    0.4422   -5.0131   -1.1807 H   0  0  0  0  0  0  0  0  0  0  0  0
   -2.8425   -4.9401   -0.2874 H   0  0  0  0  0  0  0  0  0  0  0  0
   -2.8709   -3.9774   -1.7586 H   0  0  0  0  0  0  0  0  0  0  0  0
   -1.8196   -5.3866   -1.6414 H   0  0  0  0  0  0  0  0  0  0  0  0
   -3.3820   -2.8247    0.4209 H   0  0  0  0  0  0  0  0  0  0  0  0
   -5.9513   -2.3440    0.8102 H   0  0  0  0  0  0  0  0  0  0  0  0
   -7.7967    1.9790    1.1724 H   0  0  0  0  0  0  0  0  0  0  0  0
   -6.6176    2.7887    0.1293 H   0  0  0  0  0  0  0  0  0  0  0  0
   -7.8946    1.7960   -0.5916 H   0  0  0  0  0  0  0  0  0  0  0  0
   -0.2542    1.1819   -0.6401 H   0  0  0  0  0  0  0  0  0  0  0  0
    1.3135    3.0533   -1.1706 H   0  0  0  0  0  0  0  0  0  0  0  0
    0.3893    5.3370   -1.4472 H   0  0  0  0  0  0  0  0  0  0  0  0
   -3.4356    4.0431   -0.7097 H   0  0  0  0  0  0  0  0  0  0  0  0
 32 33  2  0
 32 31  1  0
 33 34  1  0
 31 30  2  0
 34 29  2  0
 29 30  1  0
 29 28  1  0
 20 28  2  0
 20 19  1  0
 28 27  1  0
 18 19  1  0
 18 17  1  0
 19 21  2  0
 27 26  2  0
 16 15  1  0
 17 15  1  0
 17 12  2  0
 21 26  1  0
 21 22  1  0
 15 14  2  0
 26 24  1  0
 12 11  1  0
 14 13  1  0
 22 23  2  0
 24 25  1  0
 24 23  1  0
 11 13  2  0
 11  9  1  0
 10  9  2  0
  9  8  1  0
  8  7  1  0
  1  7  2  0
  1  2  1  0
  3  2  1  0
  7  6  1  0
  2  4  2  0
  6  5  2  0
  4  5  1  0
  1 35  1  0
  4 36  1  0
  5 37  1  0
  6 38  1  0
  8 39  1  0
 12 40  1  0
 13 41  1  0
 14 42  1  0
 16 43  1  0
 16 44  1  0
 16 45  1  0
 18 46  1  0
 22 47  1  0
 25 48  1  0
 25 49  1  0
 25 50  1  0
 30 51  1  0
 31 52  1  0
 32 53  1  0
 34 54  1  0
M  END
