
     RDKit          3D

 16 16  0  0  0  0  0  0  0  0999 V2000
   -0.1919    0.0054    2.2026 C   0  0  0  0  0  0  0  0  0  0  0  0
    1.0368   -0.0022    1.5467 C   0  0  0  0  0  0  0  0  0  0  0  0
    1.0858   -0.0164    0.1575 C   0  0  0  0  0  0  0  0  0  0  0  0
   -0.0877   -0.0231   -0.5751 C   0  0  0  0  0  0  0  0  0  0  0  0
   -1.3198   -0.0148    0.0683 C   0  0  0  0  0  0  0  0  0  0  0  0
   -0.3405    0.0182    3.5374 O   0  0  0  0  0  0  0  0  0  0  0  0
    0.8183    0.0258    4.3487 C   0  0  0  0  0  0  0  0  0  0  0  0
   -0.0185   -0.0432   -2.4637 Br  0  0  0  0  0  0  0  0  0  0  0  0
   -1.3684   -0.0007    1.4494 C   0  0  0  0  0  0  0  0  0  0  0  0
    1.9697    0.0028    2.0940 H   0  0  0  0  0  0  0  0  0  0  0  0
    2.0507   -0.0218   -0.3321 H   0  0  0  0  0  0  0  0  0  0  0  0
   -2.2437   -0.0192   -0.4946 H   0  0  0  0  0  0  0  0  0  0  0  0
    0.4725    0.0354    5.3791 H   0  0  0  0  0  0  0  0  0  0  0  0
    1.4327   -0.8643    4.1914 H   0  0  0  0  0  0  0  0  0  0  0  0
    1.4325    0.9130    4.1747 H   0  0  0  0  0  0  0  0  0  0  0  0
   -2.3266    0.0061    1.9533 H   0  0  0  0  0  0  0  0  0  0  0  0
  1  2  2  0
  1  6  1  0
  1  9  1  0
  2  3  1  0
  2 10  1  0
  3  4  2  0
  3 11  1  0
  4  5  1  0
  4  8  1  0
  5  9  2  0
  5 12  1  0
  6  7  1  0
  7 13  1  0
  7 14  1  0
  7 15  1  0
  9 16  1  0
M  END
