
     RDKit          3D

 26 28  0  0  0  0  0  0  0  0999 V2000
    0.0074   -3.0295   -0.0375 O   0  0  0  0  0  0  0  0  0  0  0  0
   -0.0260   -1.8168   -0.0748 C   0  0  0  0  0  0  0  0  0  0  0  0
    1.2293   -1.0227   -0.1125 C   0  0  0  0  0  0  0  0  0  0  0  0
    2.4269   -1.7154   -0.1056 C   0  0  0  0  0  0  0  0  0  0  0  0
    3.6250   -1.0139   -0.1388 C   0  0  0  0  0  0  0  0  0  0  0  0
    3.6258    0.3631   -0.1776 C   0  0  0  0  0  0  0  0  0  0  0  0
    2.4250    1.0802   -0.1837 C   0  0  0  0  0  0  0  0  0  0  0  0
    2.4405    2.4115   -0.2185 O   0  0  0  0  0  0  0  0  0  0  0  0
    1.2007    0.3852   -0.1526 C   0  0  0  0  0  0  0  0  0  0  0  0
   -0.0879    1.0941   -0.1634 C   0  0  0  0  0  0  0  0  0  0  0  0
   -0.1462    2.3221   -0.2028 O   0  0  0  0  0  0  0  0  0  0  0  0
   -1.3304    0.3127   -0.1276 C   0  0  0  0  0  0  0  0  0  0  0  0
   -1.3147   -1.0906   -0.0839 C   0  0  0  0  0  0  0  0  0  0  0  0
   -2.4922   -1.8141   -0.0496 C   0  0  0  0  0  0  0  0  0  0  0  0
   -3.7101   -1.1390   -0.0590 C   0  0  0  0  0  0  0  0  0  0  0  0
   -3.7545    0.2372   -0.1030 C   0  0  0  0  0  0  0  0  0  0  0  0
   -2.5704    0.9825   -0.1375 C   0  0  0  0  0  0  0  0  0  0  0  0
   -2.6738    2.3046   -0.1786 O   0  0  0  0  0  0  0  0  0  0  0  0
    2.4319   -2.7953   -0.0760 H   0  0  0  0  0  0  0  0  0  0  0  0
    4.5655   -1.5480   -0.1339 H   0  0  0  0  0  0  0  0  0  0  0  0
    4.5657    0.9032   -0.2040 H   0  0  0  0  0  0  0  0  0  0  0  0
    3.3516    2.7297   -0.2324 H   0  0  0  0  0  0  0  0  0  0  0  0
   -2.4700   -2.8938   -0.0164 H   0  0  0  0  0  0  0  0  0  0  0  0
   -4.6343   -1.7007   -0.0321 H   0  0  0  0  0  0  0  0  0  0  0  0
   -4.7022    0.7604   -0.1116 H   0  0  0  0  0  0  0  0  0  0  0  0
   -1.7557    2.6659   -0.1988 H   0  0  0  0  0  0  0  0  0  0  0  0
  1  2  2  0
  2  3  1  0
  2 13  1  0
  3  4  1  0
  3  9  2  0
  4  5  2  0
  5  6  1  0
  6  7  2  0
  7  8  1  0
  7  9  1  0
  9 10  1  0
 10 11  2  0
 10 12  1  0
 12 13  2  0
 12 17  1  0
 13 14  1  0
 14 15  2  0
 15 16  1  0
 16 17  2  0
 17 18  1  0
  4 19  1  0
  5 20  1  0
  6 21  1  0
  8 22  1  0
 14 23  1  0
 15 24  1  0
 16 25  1  0
 18 26  1  0
M  END
