
     RDKit          3D

 45 48  0  0  0  0  0  0  0  0999 V2000
   -4.3402    1.1325    0.3124 C   0  0  0  0  0  0  0  0  0  0  0  0
   -4.7176    1.7204   -0.8870 C   0  0  0  0  0  0  0  0  0  0  0  0
   -4.5574    3.0897   -1.0415 C   0  0  0  0  0  0  0  0  0  0  0  0
   -2.9436   -1.2737    0.0902 C   0  0  0  0  0  0  0  0  0  0  0  0
   -0.4496   -2.2767   -0.5826 C   0  0  0  0  0  0  0  0  0  0  0  0
   -1.9919   -1.4609    1.0854 C   0  0  0  0  0  0  0  0  0  0  0  0
    3.7727   -0.7012    0.3251 C   0  0  0  0  0  0  0  0  0  0  0  0
    4.9041   -0.6865    1.0907 C   0  0  0  0  0  0  0  0  0  0  0  0
    5.5867    0.5236    0.7833 C   0  0  0  0  0  0  0  0  0  0  0  0
    5.2118    2.4499   -0.6571 C   0  0  0  0  0  0  0  0  0  0  0  0
   -4.0282    3.8516   -0.0083 C   0  0  0  0  0  0  0  0  0  0  0  0
   -3.6576    3.2495    1.1877 C   0  0  0  0  0  0  0  0  0  0  0  0
   -3.8142    1.8826    1.3568 C   0  0  0  0  0  0  0  0  0  0  0  0
   -4.5328   -0.6183    0.5217 S   0  0  1  0  0  0  0  0  0  0  0  0
   -4.7597   -0.8819    1.9393 O   0  0  0  0  0  0  0  0  0  0  0  0
   -5.5022   -1.0891   -0.4627 O   0  0  0  0  0  0  0  0  0  0  0  0
   -2.6722   -1.5874   -1.2327 C   0  0  0  0  0  0  0  0  0  0  0  0
   -1.4200   -2.0862   -1.5597 C   0  0  0  0  0  0  0  0  0  0  0  0
   -0.7488   -1.9619    0.7420 C   0  0  0  0  0  0  0  0  0  0  0  0
    0.9129   -2.8073   -0.9531 C   0  0  0  0  0  0  0  0  0  0  0  0
    1.9541   -1.8182   -0.7741 N   0  0  0  0  0  0  0  0  0  0  0  0
    2.7673   -1.7847    0.2962 C   0  0  0  0  0  0  0  0  0  0  0  0
    2.7204   -2.5971    1.2090 O   0  0  0  0  0  0  0  0  0  0  0  0
    6.7737    1.1272    1.2078 C   0  0  0  0  0  0  0  0  0  0  0  0
    7.1674    2.2981    0.7508 N   0  0  0  0  0  0  0  0  0  0  0  0
    6.3997    2.9333   -0.1543 C   0  0  0  0  0  0  0  0  0  0  0  0
    4.8070    1.2069   -0.1720 C   0  0  0  0  0  0  0  0  0  0  0  0
    3.7222    0.4424   -0.4434 N   0  0  0  0  0  0  0  0  0  0  0  0
   -5.1358    1.1315   -1.6920 H   0  0  0  0  0  0  0  0  0  0  0  0
   -4.8527    3.5597   -1.9696 H   0  0  0  0  0  0  0  0  0  0  0  0
   -2.2115   -1.2285    2.1187 H   0  0  0  0  0  0  0  0  0  0  0  0
    5.2165   -1.4612    1.7720 H   0  0  0  0  0  0  0  0  0  0  0  0
    4.6409    3.0089   -1.3857 H   0  0  0  0  0  0  0  0  0  0  0  0
   -3.9056    4.9191   -0.1348 H   0  0  0  0  0  0  0  0  0  0  0  0
   -3.2503    3.8438    1.9944 H   0  0  0  0  0  0  0  0  0  0  0  0
   -3.5292    1.4179    2.2914 H   0  0  0  0  0  0  0  0  0  0  0  0
   -3.4158   -1.4519   -2.0064 H   0  0  0  0  0  0  0  0  0  0  0  0
   -1.1998   -2.3307   -2.5912 H   0  0  0  0  0  0  0  0  0  0  0  0
   -0.0101   -2.1172    1.5180 H   0  0  0  0  0  0  0  0  0  0  0  0
    1.1552   -3.6827   -0.3514 H   0  0  0  0  0  0  0  0  0  0  0  0
    0.9181   -3.1217   -1.9963 H   0  0  0  0  0  0  0  0  0  0  0  0
    2.0992   -1.1782   -1.5376 H   0  0  0  0  0  0  0  0  0  0  0  0
    7.4112    0.6383    1.9378 H   0  0  0  0  0  0  0  0  0  0  0  0
    6.7688    3.8934   -0.4955 H   0  0  0  0  0  0  0  0  0  0  0  0
    2.9469    0.7427   -1.0125 H   0  0  0  0  0  0  0  0  0  0  0  0
  1  2  2  0
  1 13  1  0
 14  1  1  1
  2  3  1  0
  3 11  2  0
  4  6  2  0
  4 14  1  0
  4 17  1  0
  5 18  1  0
  5 19  2  0
  5 20  1  0
  6 19  1  0
  7  8  2  0
  7 22  1  0
  7 28  1  0
  8  9  1  0
  9 24  2  0
  9 27  1  0
 10 26  1  0
 10 27  2  0
 11 12  1  0
 12 13  2  0
 14 15  2  0
 14 16  2  0
 17 18  2  0
 20 21  1  0
 21 22  1  0
 22 23  2  0
 24 25  1  0
 25 26  2  0
 27 28  1  0
  2 29  1  0
  3 30  1  0
  6 31  1  0
  8 32  1  0
 10 33  1  0
 11 34  1  0
 12 35  1  0
 13 36  1  0
 17 37  1  0
 18 38  1  0
 19 39  1  0
 20 40  1  0
 20 41  1  0
 21 42  1  0
 24 43  1  0
 26 44  1  0
 28 45  1  0
M  END
