
     RDKit          3D

 57 59  0  0  0  0  0  0  0  0999 V2000
   -7.0141   -1.2192   -0.0326 N   0  0  0  0  0  0  0  0  0  0  0  0
   -7.6097   -0.1087   -0.3698 C   0  0  0  0  0  0  0  0  0  0  0  0
   -8.8798   -0.1371   -0.8130 N   0  0  0  0  0  0  0  0  0  0  0  0
   -7.0140    1.1001   -0.2550 N   0  0  0  0  0  0  0  0  0  0  0  0
   -5.7085    1.2827    0.2178 C   0  0  0  0  0  0  0  0  0  0  0  0
   -5.2395    2.4170    0.2537 O   0  0  0  0  0  0  0  0  0  0  0  0
   -5.0791    0.0817    0.6284 C   0  0  0  0  0  0  0  0  0  0  0  0
   -3.7385    0.1196    1.0800 N   0  0  0  0  0  0  0  0  0  0  0  0
   -3.0341   -1.1292    0.9033 C   0  0  1  0  0  0  0  0  0  0  0  0
   -3.8569   -2.3236    1.4001 C   0  0  0  0  0  0  0  0  0  0  0  0
   -5.1672   -2.2802    0.8003 N   0  0  0  0  0  0  0  0  0  0  0  0
   -5.7630   -1.1173    0.4785 C   0  0  0  0  0  0  0  0  0  0  0  0
   -2.6538   -1.3128   -0.5694 C   0  0  0  0  0  0  0  0  0  0  0  0
   -1.9699   -0.1521   -1.1040 N   0  0  0  0  0  0  0  0  0  0  0  0
    1.9229    0.5759    0.3023 C   0  0  0  0  0  0  0  0  0  0  0  0
    0.8565    1.3538    0.7487 C   0  0  0  0  0  0  0  0  0  0  0  0
   -0.4245    1.1290    0.2771 C   0  0  0  0  0  0  0  0  0  0  0  0
   -0.6568    0.1128   -0.6439 C   0  0  0  0  0  0  0  0  0  0  0  0
    0.3975   -0.6757   -1.0841 C   0  0  0  0  0  0  0  0  0  0  0  0
    1.6799   -0.4472   -0.6104 C   0  0  0  0  0  0  0  0  0  0  0  0
    4.3262    0.4338    0.1153 N   0  0  0  0  0  0  0  0  0  0  0  0
    5.6777    0.6875    0.5319 C   0  0  1  0  0  0  0  0  0  0  0  0
    6.6562   -0.1829   -0.2625 C   0  0  0  0  0  0  0  0  0  0  0  0
    6.4338   -1.6607    0.0181 C   0  0  0  0  0  0  0  0  0  0  0  0
    7.4125   -2.5447   -0.7042 C   0  0  0  0  0  0  0  0  0  0  0  0
    7.2244   -3.8267   -0.4112 O   0  0  0  0  0  0  0  0  0  0  0  0
    8.2687   -2.1589   -1.4603 O   0  0  0  0  0  0  0  0  0  0  0  0
    6.0218    2.1622    0.3688 C   0  0  0  0  0  0  0  0  0  0  0  0
    5.3957    2.9384   -0.3029 O   0  0  0  0  0  0  0  0  0  0  0  0
    7.1168    2.4748    1.0452 O   0  0  0  0  0  0  0  0  0  0  0  0
   -2.6679    0.8039   -1.7557 C   0  0  0  0  0  0  0  0  0  0  0  0
   -2.2174    1.8674   -2.1317 O   0  0  0  0  0  0  0  0  0  0  0  0
    3.4298    1.4063    1.9360 O   0  0  0  0  0  0  0  0  0  0  0  0
   -9.2627   -1.0370   -1.0483 H   0  0  0  0  0  0  0  0  0  0  0  0
   -9.2628    0.6479   -1.3121 H   0  0  0  0  0  0  0  0  0  0  0  0
   -7.5166    1.9354   -0.5230 H   0  0  0  0  0  0  0  0  0  0  0  0
   -3.6520    0.4614    2.0275 H   0  0  0  0  0  0  0  0  0  0  0  0
   -2.1215   -1.0856    1.5013 H   0  0  0  0  0  0  0  0  0  0  0  0
   -3.3796   -3.2695    1.1388 H   0  0  0  0  0  0  0  0  0  0  0  0
   -3.9143   -2.2808    2.4926 H   0  0  0  0  0  0  0  0  0  0  0  0
   -2.0185   -2.1931   -0.6793 H   0  0  0  0  0  0  0  0  0  0  0  0
   -3.5420   -1.4895   -1.1789 H   0  0  0  0  0  0  0  0  0  0  0  0
    1.0270    2.1406    1.4710 H   0  0  0  0  0  0  0  0  0  0  0  0
   -1.2523    1.7242    0.6385 H   0  0  0  0  0  0  0  0  0  0  0  0
    0.2190   -1.4730   -1.7941 H   0  0  0  0  0  0  0  0  0  0  0  0
    2.4789   -1.0929   -0.9515 H   0  0  0  0  0  0  0  0  0  0  0  0
    4.1756    0.2116   -0.8566 H   0  0  0  0  0  0  0  0  0  0  0  0
    5.7728    0.4380    1.5922 H   0  0  0  0  0  0  0  0  0  0  0  0
    6.5494    0.0271   -1.3299 H   0  0  0  0  0  0  0  0  0  0  0  0
    7.6733    0.0933    0.0151 H   0  0  0  0  0  0  0  0  0  0  0  0
    6.5160   -1.8610    1.0906 H   0  0  0  0  0  0  0  0  0  0  0  0
    5.4247   -1.9742   -0.2634 H   0  0  0  0  0  0  0  0  0  0  0  0
    7.8703   -4.3730   -0.8837 H   0  0  0  0  0  0  0  0  0  0  0  0
    7.3450    3.4065    0.9070 H   0  0  0  0  0  0  0  0  0  0  0  0
   -3.7027    0.4907   -1.9562 H   0  0  0  0  0  0  0  0  0  0  0  0
   -5.6862   -3.1307    0.6608 H   0  0  0  0  0  0  0  0  0  0  0  0
    3.2797    0.8502    0.8589 C   0  0  0  0  0  0  0  0  0  0  0  0
 10 11  1  0
 10  9  1  0
 11 12  1  0
 32 31  2  0
  9  8  1  0
  9 13  1  0
 31 14  1  0
 19 20  1  0
 19 18  2  0
 20 15  2  0
 14 18  1  0
 14 13  1  0
  8  7  1  0
 12  7  2  0
 12  1  1  0
 18 17  1  0
  7  5  1  0
  1  2  2  0
 15 57  1  0
 15 16  1  0
 17 16  2  0
  2  4  1  0
  2  3  1  0
  5  4  1  0
  5  6  2  0
 33 57  2  0
 57 21  1  0
 21 22  1  0
 22 28  1  0
 22 23  1  0
 28 29  2  0
 28 30  1  0
 24 23  1  0
 24 25  1  0
 27 25  2  0
 25 26  1  0
  3 34  1  0
  3 35  1  0
  4 36  1  0
  8 37  1  0
  9 38  1  1
 10 39  1  0
 10 40  1  0
 13 41  1  0
 13 42  1  0
 16 43  1  0
 17 44  1  0
 19 45  1  0
 20 46  1  0
 21 47  1  0
 22 48  1  1
 23 49  1  0
 23 50  1  0
 24 51  1  0
 24 52  1  0
 26 53  1  0
 30 54  1  0
 31 55  1  0
 11 56  1  0
M  END
