
     RDKit          3D

 26 25  0  0  0  0  0  0  0  0999 V2000
    0.3564   -0.4590   -0.0206 C   0  0  1  0  0  0  0  0  0  0  0  0
    1.6625    0.3909    0.0737 C   0  0  1  0  0  0  0  0  0  0  0  0
    2.9686   -0.4275   -0.1360 C   0  0  1  0  0  0  0  0  0  0  0  0
   -0.9306    0.3926   -0.2565 C   0  0  1  0  0  0  0  0  0  0  0  0
    4.2699    0.2987    0.2999 C   0  0  1  0  0  0  0  0  0  0  0  0
   -2.1823   -1.6192   -0.3643 F   0  0  0  0  0  0  0  0  0  0  0  0
   -2.2543   -0.3551    0.0805 C   0  0  1  0  0  0  0  0  0  0  0  0
   -2.3973   -0.3828    1.4168 F   0  0  0  0  0  0  0  0  0  0  0  0
   -3.5397    0.2817   -0.5115 C   0  0  1  0  0  0  0  0  0  0  0  0
   -3.4983    1.6128   -0.3437 F   0  0  0  0  0  0  0  0  0  0  0  0
   -3.5989    0.0163   -1.8243 F   0  0  0  0  0  0  0  0  0  0  0  0
   -4.7920   -0.3223    0.1586 C   0  0  0  0  0  0  0  0  0  0  0  0
   -5.2589    0.4617    1.0945 O   0  0  0  0  0  0  0  0  0  0  0  0
   -5.2145   -1.3862   -0.1874 O   0  0  0  0  0  0  0  0  0  0  0  0
   -0.8728    1.4949    0.5055 F   0  0  0  0  0  0  0  0  0  0  0  0
   -0.9552    0.7600   -1.5460 F   0  0  0  0  0  0  0  0  0  0  0  0
    0.4688   -1.3304   -1.0330 F   0  0  0  0  0  0  0  0  0  0  0  0
    0.2259   -1.1435    1.1251 F   0  0  0  0  0  0  0  0  0  0  0  0
    1.6308    1.3560   -0.8576 F   0  0  0  0  0  0  0  0  0  0  0  0
    1.6980    0.9639    1.2853 F   0  0  0  0  0  0  0  0  0  0  0  0
    2.8962   -1.5738    0.5583 F   0  0  0  0  0  0  0  0  0  0  0  0
    3.0848   -0.7148   -1.4395 F   0  0  0  0  0  0  0  0  0  0  0  0
    5.3112   -0.4126   -0.1103 F   0  0  0  0  0  0  0  0  0  0  0  0
    4.3421    1.5072   -0.2422 F   0  0  0  0  0  0  0  0  0  0  0  0
    4.3331    0.4124    1.6178 F   0  0  0  0  0  0  0  0  0  0  0  0
   -6.0408    0.0710    1.5188 H   0  0  0  0  0  0  0  0  0  0  0  0
 14 12  2  0
 13 12  1  0
 12  9  1  0
  9 11  1  6
  9 10  1  0
  9  7  1  0
  7  6  1  6
  7  8  1  0
  7  4  1  0
  4 15  1  1
  4 16  1  0
  4  1  1  0
  1 17  1  6
  1 18  1  0
  1  2  1  0
  2 19  1  6
  2 20  1  0
  2  3  1  0
  5 24  1  6
  3  5  1  0
  3 22  1  6
  3 21  1  0
  5 25  1  0
  5 23  1  0
 13 26  1  0
M  END
