
     RDKit          3D

 27 28  0  0  0  0  0  0  0  0999 V2000
   -1.9552    1.1442   -0.1558 C   0  0  0  0  0  0  0  0  0  0  0  0
   -2.1607   -0.3666    0.1059 C   0  0  2  0  0  0  0  0  0  0  0  0
   -3.1365   -1.0155   -0.8542 C   0  0  0  0  0  0  0  0  0  0  0  0
   -2.5392   -0.6286    1.5552 C   0  0  0  0  0  0  0  0  0  0  0  0
   -0.8526   -0.9691   -0.1191 O   0  0  0  0  0  0  0  0  0  0  0  0
    0.0779    0.0052   -0.0856 C   0  0  0  0  0  0  0  0  0  0  0  0
   -0.4648    1.2803   -0.0853 C   0  0  0  0  0  0  0  0  0  0  0  0
    0.3677    2.3838   -0.0590 C   0  0  0  0  0  0  0  0  0  0  0  0
    1.7442    2.1757   -0.0306 C   0  0  0  0  0  0  0  0  0  0  0  0
    2.2692    0.8869   -0.0310 C   0  0  0  0  0  0  0  0  0  0  0  0
    1.4449   -0.2372   -0.0542 C   0  0  0  0  0  0  0  0  0  0  0  0
    1.9535   -1.6505   -0.0481 C   0  0  0  0  0  0  0  0  0  0  0  0
    3.3536   -1.6569    0.0562 O   0  0  0  0  0  0  0  0  0  0  0  0
   -2.3334    1.4388   -1.1395 H   0  0  0  0  0  0  0  0  0  0  0  0
   -2.4791    1.7510    0.5848 H   0  0  0  0  0  0  0  0  0  0  0  0
   -2.8387   -0.8528   -1.8907 H   0  0  0  0  0  0  0  0  0  0  0  0
   -3.2111   -2.0897   -0.6772 H   0  0  0  0  0  0  0  0  0  0  0  0
   -4.1302   -0.5870   -0.7202 H   0  0  0  0  0  0  0  0  0  0  0  0
   -3.5215   -0.2058    1.7678 H   0  0  0  0  0  0  0  0  0  0  0  0
   -2.5812   -1.6987    1.7623 H   0  0  0  0  0  0  0  0  0  0  0  0
   -1.8242   -0.1707    2.2414 H   0  0  0  0  0  0  0  0  0  0  0  0
   -0.0384    3.3880   -0.0602 H   0  0  0  0  0  0  0  0  0  0  0  0
    2.4178    3.0222   -0.0074 H   0  0  0  0  0  0  0  0  0  0  0  0
    3.3428    0.7595   -0.0057 H   0  0  0  0  0  0  0  0  0  0  0  0
    1.4850   -2.1927    0.7851 H   0  0  0  0  0  0  0  0  0  0  0  0
    1.6170   -2.1545   -0.9649 H   0  0  0  0  0  0  0  0  0  0  0  0
    3.6450   -2.5728    0.0620 H   0  0  0  0  0  0  0  0  0  0  0  0
  9  8  1  0
  9 10  2  0
  8  7  2  0
 10 11  1  0
  7  1  1  0
  7  6  1  0
  1  2  1  0
  2  4  1  1
 11  6  2  0
 11 12  1  0
  6  5  1  0
  2  5  1  0
  2  3  1  0
 12 13  1  0
  1 14  1  0
  1 15  1  0
  3 16  1  0
  3 17  1  0
  3 18  1  0
  4 19  1  0
  4 20  1  0
  4 21  1  0
  8 22  1  0
  9 23  1  0
 10 24  1  0
 12 25  1  0
 12 26  1  0
 13 27  1  0
M  END
