
     RDKit          3D

 43 46  0  0  0  0  0  0  0  0999 V2000
   -4.0936    0.7578   -2.4077 Cl  0  0  0  0  0  0  0  0  0  0  0  0
   -4.0336   -0.1918   -0.9714 C   0  0  0  0  0  0  0  0  0  0  0  0
   -4.2040   -1.5590   -1.0961 C   0  0  0  0  0  0  0  0  0  0  0  0
   -4.1358   -2.3505    0.0405 C   0  0  0  0  0  0  0  0  0  0  0  0
   -4.3495   -4.0508   -0.1157 Cl  0  0  0  0  0  0  0  0  0  0  0  0
   -3.8938   -1.8024    1.2893 C   0  0  0  0  0  0  0  0  0  0  0  0
   -3.7231   -0.4339    1.3985 C   0  0  0  0  0  0  0  0  0  0  0  0
   -3.7954    0.3808    0.2762 C   0  0  0  0  0  0  0  0  0  0  0  0
   -3.5683    2.1321    0.4922 S   0  0  1  0  0  0  0  0  0  0  0  0
   -4.6199    2.8599   -0.1835 O   0  0  0  0  0  0  0  0  0  0  0  0
   -3.3278    2.3463    1.9046 O   0  0  0  0  0  0  0  0  0  0  0  0
   -2.1578    2.4909   -0.3169 N   0  0  0  0  0  0  0  0  0  0  0  0
   -1.0111    1.7100   -0.0475 C   0  0  0  0  0  0  0  0  0  0  0  0
   -0.5416    0.8198   -1.0064 C   0  0  0  0  0  0  0  0  0  0  0  0
    0.5783    0.0564   -0.7326 C   0  0  0  0  0  0  0  0  0  0  0  0
    1.1811   -1.0460   -1.9051 Cl  0  0  0  0  0  0  0  0  0  0  0  0
    1.2195    0.1424    0.4978 C   0  0  0  0  0  0  0  0  0  0  0  0
    0.7415    1.0493    1.4364 C   0  0  0  0  0  0  0  0  0  0  0  0
    1.5677    1.1925    2.9366 Cl  0  0  0  0  0  0  0  0  0  0  0  0
   -0.3659    1.8365    1.1760 C   0  0  0  0  0  0  0  0  0  0  0  0
    2.2622   -0.6670    0.7996 O   0  0  0  0  0  0  0  0  0  0  0  0
    3.5216   -0.3369    0.3861 C   0  0  0  0  0  0  0  0  0  0  0  0
    4.5119   -1.2580    0.5700 C   0  0  0  0  0  0  0  0  0  0  0  0
    5.8203   -0.9334    0.1639 C   0  0  0  0  0  0  0  0  0  0  0  0
    6.9100   -1.8223    0.3169 C   0  0  0  0  0  0  0  0  0  0  0  0
    3.8321    0.9094   -0.2022 C   0  0  0  0  0  0  0  0  0  0  0  0
    5.0359    1.2276   -0.5897 N   0  0  0  0  0  0  0  0  0  0  0  0
    6.0399    0.3378   -0.4236 C   0  0  0  0  0  0  0  0  0  0  0  0
    7.3426    0.6895   -0.8460 C   0  0  0  0  0  0  0  0  0  0  0  0
    8.3783   -0.1892   -0.6862 C   0  0  0  0  0  0  0  0  0  0  0  0
    8.1596   -1.4550   -0.0994 C   0  0  0  0  0  0  0  0  0  0  0  0
   -4.3874   -1.9971   -2.0671 H   0  0  0  0  0  0  0  0  0  0  0  0
   -3.8385   -2.4278    2.1686 H   0  0  0  0  0  0  0  0  0  0  0  0
   -3.5303   -0.0057    2.3715 H   0  0  0  0  0  0  0  0  0  0  0  0
   -2.3186    2.6992   -1.2969 H   0  0  0  0  0  0  0  0  0  0  0  0
   -1.0378    0.7262   -1.9633 H   0  0  0  0  0  0  0  0  0  0  0  0
   -0.7052    2.5530    1.9090 H   0  0  0  0  0  0  0  0  0  0  0  0
    4.2990   -2.2208    1.0188 H   0  0  0  0  0  0  0  0  0  0  0  0
    6.7415   -2.7926    0.7677 H   0  0  0  0  0  0  0  0  0  0  0  0
    3.0597    1.6577   -0.3517 H   0  0  0  0  0  0  0  0  0  0  0  0
    7.4967    1.6629   -1.2938 H   0  0  0  0  0  0  0  0  0  0  0  0
    9.3744    0.0833   -1.0086 H   0  0  0  0  0  0  0  0  0  0  0  0
    8.9913   -2.1364    0.0211 H   0  0  0  0  0  0  0  0  0  0  0  0
  1  2  1  0
  2  3  2  0
  2  8  1  0
  3  4  1  0
  4  5  1  0
  4  6  2  0
  6  7  1  0
  7  8  2  0
  8  9  1  0
  9 10  2  0
  9 11  2  0
  9 12  1  6
 12 13  1  0
 13 14  2  0
 13 20  1  0
 14 15  1  0
 15 16  1  0
 15 17  2  0
 17 18  1  0
 17 21  1  0
 18 19  1  0
 18 20  2  0
 21 22  1  0
 22 23  2  0
 22 26  1  0
 23 24  1  0
 24 25  2  0
 24 28  1  0
 25 31  1  0
 26 27  2  0
 27 28  1  0
 28 29  2  0
 29 30  1  0
 30 31  2  0
  3 32  1  0
  6 33  1  0
  7 34  1  0
 12 35  1  0
 14 36  1  0
 20 37  1  0
 23 38  1  0
 25 39  1  0
 26 40  1  0
 29 41  1  0
 30 42  1  0
 31 43  1  0
M  END
