
     RDKit          3D

 42 43  0  0  0  0  0  0  0  0999 V2000
    0.5549    0.7001   -0.2198 C   0  0  0  0  0  0  0  0  0  0  0  0
   -5.4939   -0.6255    0.0916 C   0  0  0  0  0  0  0  0  0  0  0  0
   -3.7518   -2.1400    0.0809 C   0  0  0  0  0  0  0  0  0  0  0  0
   -4.6467    0.4602    0.2887 C   0  0  0  0  0  0  0  0  0  0  0  0
   -3.2925    0.2164    0.3785 C   0  0  0  0  0  0  0  0  0  0  0  0
   -5.0626   -1.8620   -0.0076 N   0  0  0  0  0  0  0  0  0  0  0  0
   -3.4260   -3.4354    0.0010 N   0  0  0  0  0  0  0  0  0  0  0  0
   -2.8252   -1.0848    0.2670 C   0  0  0  0  0  0  0  0  0  0  0  0
   -1.0752   -1.2998    0.4597 S   0  0  1  0  0  0  0  0  0  0  0  0
   -0.6927   -0.8388    1.7843 O   0  0  0  0  0  0  0  0  0  0  0  0
   -0.5456   -0.6011   -2.0251 C   0  0  0  0  0  0  0  0  0  0  0  0
   -0.7565   -2.6678    0.0689 O   0  0  0  0  0  0  0  0  0  0  0  0
   -0.4895   -0.2069   -0.6251 N   0  0  0  0  0  0  0  0  0  0  0  0
    1.9171    0.0309   -0.0807 C   0  0  0  0  0  0  0  0  0  0  0  0
    2.0188   -1.1735    0.0504 O   0  0  0  0  0  0  0  0  0  0  0  0
    2.9438    0.9064   -0.0795 N   0  0  0  0  0  0  0  0  0  0  0  0
    4.3149    0.6454    0.0765 C   0  0  0  0  0  0  0  0  0  0  0  0
    5.2099    1.6111   -0.3697 C   0  0  0  0  0  0  0  0  0  0  0  0
    4.8243   -0.5056    0.6807 C   0  0  0  0  0  0  0  0  0  0  0  0
    6.1906   -0.6711    0.8174 C   0  0  0  0  0  0  0  0  0  0  0  0
    7.0860    0.2986    0.3670 C   0  0  0  0  0  0  0  0  0  0  0  0
    6.5810    1.4512   -0.2271 C   0  0  0  0  0  0  0  0  0  0  0  0
    8.3967    0.0410    0.5488 O   0  0  0  0  0  0  0  0  0  0  0  0
    9.3363    0.9948    0.0971 C   0  0  0  0  0  0  0  0  0  0  0  0
    0.5883    1.5077   -0.9540 H   0  0  0  0  0  0  0  0  0  0  0  0
    0.3014    1.1673    0.7334 H   0  0  0  0  0  0  0  0  0  0  0  0
   -6.5660   -0.4823    0.0088 H   0  0  0  0  0  0  0  0  0  0  0  0
   -2.5953    1.0334    0.5162 H   0  0  0  0  0  0  0  0  0  0  0  0
   -4.1492   -4.0876   -0.2496 H   0  0  0  0  0  0  0  0  0  0  0  0
   -2.4666   -3.7254   -0.0781 H   0  0  0  0  0  0  0  0  0  0  0  0
    0.2285   -1.3199   -2.2957 H   0  0  0  0  0  0  0  0  0  0  0  0
   -1.5206   -1.0264   -2.2614 H   0  0  0  0  0  0  0  0  0  0  0  0
   -0.4307    0.2928   -2.6342 H   0  0  0  0  0  0  0  0  0  0  0  0
    2.7128    1.8688   -0.2773 H   0  0  0  0  0  0  0  0  0  0  0  0
    4.8385    2.5145   -0.8386 H   0  0  0  0  0  0  0  0  0  0  0  0
    4.1694   -1.2770    1.0537 H   0  0  0  0  0  0  0  0  0  0  0  0
    6.5721   -1.5692    1.2871 H   0  0  0  0  0  0  0  0  0  0  0  0
    7.2297    2.2369   -0.5899 H   0  0  0  0  0  0  0  0  0  0  0  0
    9.2686    1.1550   -0.9824 H   0  0  0  0  0  0  0  0  0  0  0  0
    9.2195    1.9570    0.6035 H   0  0  0  0  0  0  0  0  0  0  0  0
   10.3202    0.5953    0.3300 H   0  0  0  0  0  0  0  0  0  0  0  0
   -5.3394    2.2019    0.4190 Br  0  0  0  0  0  0  0  0  0  0  0  0
  1 13  1  0
  1 14  1  0
  2  4  2  0
  2  6  1  0
  3  6  2  0
  3  7  1  0
  3  8  1  0
 42  4  1  0
  4  5  1  0
  5  8  2  0
  8  9  1  0
  9 10  2  0
  9 12  2  0
  9 13  1  6
 11 13  1  0
 14 15  2  0
 14 16  1  0
 16 17  1  0
 17 18  2  0
 17 19  1  0
 18 22  1  0
 19 20  2  0
 20 21  1  0
 21 22  2  0
 21 23  1  0
 23 24  1  0
  1 25  1  0
  1 26  1  0
  2 27  1  0
  5 28  1  0
  7 29  1  0
  7 30  1  0
 11 31  1  0
 11 32  1  0
 11 33  1  0
 16 34  1  0
 18 35  1  0
 19 36  1  0
 20 37  1  0
 22 38  1  0
 24 39  1  0
 24 40  1  0
 24 41  1  0
M  END
