
     RDKit          3D

 15 15  0  0  0  0  0  0  0  0999 V2000
    1.8182   -0.3829   -0.1525 C   0  0  0  0  0  0  0  0  0  0  0  0
    0.4948   -0.8060   -0.1289 C   0  0  0  0  0  0  0  0  0  0  0  0
   -0.5077    0.1486   -0.0364 C   0  0  0  0  0  0  0  0  0  0  0  0
   -0.2419    1.5057    0.0328 C   0  0  0  0  0  0  0  0  0  0  0  0
    1.0866    1.9052    0.0073 C   0  0  0  0  0  0  0  0  0  0  0  0
    2.1111    0.9798   -0.0842 C   0  0  0  0  0  0  0  0  0  0  0  0
   -1.8935   -0.3030   -0.0117 N   0  0  0  0  0  0  0  0  0  0  0  0
    2.8471   -1.2398   -0.2401 O   0  0  0  0  0  0  0  0  0  0  0  0
   -2.1064   -1.4918   -0.0538 O   0  0  0  0  0  0  0  0  0  0  0  0
   -2.7621    0.5343    0.0492 O   0  0  0  0  0  0  0  0  0  0  0  0
    2.5345   -2.1511   -0.2775 H   0  0  0  0  0  0  0  0  0  0  0  0
    0.2581   -1.8604   -0.1821 H   0  0  0  0  0  0  0  0  0  0  0  0
   -1.0322    2.2369    0.1050 H   0  0  0  0  0  0  0  0  0  0  0  0
    1.3238    2.9588    0.0592 H   0  0  0  0  0  0  0  0  0  0  0  0
    3.1435    1.3053   -0.1030 H   0  0  0  0  0  0  0  0  0  0  0  0
  1  2  2  0
  1  6  1  0
  1  8  1  0
  2  3  1  0
  2 12  1  0
  3  4  2  0
  3  7  1  0
  4  5  1  0
  4 13  1  0
  5  6  2  0
  5 14  1  0
  6 15  1  0
  7  9  1  0
  7 10  2  0
 11  8  1  0
M  CHG  2   7   1   9  -1
M  END
