
     RDKit          3D

 70 73  0  0  0  0  0  0  0  0999 V2000
   -5.3423    3.6750   -0.0940 C   0  0  0  0  0  0  0  0  0  0  0  0
    4.3867   -1.3998   -0.0650 O   0  0  0  0  0  0  0  0  0  0  0  0
   -6.0303    2.4988    0.5854 C   0  0  0  0  0  0  0  0  0  0  0  0
   -6.3904   -3.0737   -1.1719 N   0  0  0  0  0  0  0  0  0  0  0  0
   -6.9676    1.4096   -1.3461 C   0  0  0  0  0  0  0  0  0  0  0  0
   -6.3101    0.1156    0.5688 C   0  0  0  0  0  0  0  0  0  0  0  0
   -6.0751   -1.1680   -0.1568 C   0  0  0  0  0  0  0  0  0  0  0  0
   -7.0353   -2.0141   -0.6640 C   0  0  0  0  0  0  0  0  0  0  0  0
   -4.8534   -1.8407   -0.4200 C   0  0  0  0  0  0  0  0  0  0  0  0
   -3.4865   -1.4479   -0.0609 C   0  0  0  0  0  0  0  0  0  0  0  0
   -6.0455    1.3016   -0.2356 N   0  0  0  0  0  0  0  0  0  0  0  0
   -5.2709    4.8025    0.8128 N   0  0  0  0  0  0  0  0  0  0  0  0
   -4.6587    5.9676    0.2087 C   0  0  0  0  0  0  0  0  0  0  0  0
   -5.0746   -2.9932   -1.0371 N   0  0  0  0  0  0  0  0  0  0  0  0
   -3.0972   -0.1063   -0.0139 C   0  0  0  0  0  0  0  0  0  0  0  0
   -1.8055    0.2518    0.3243 C   0  0  0  0  0  0  0  0  0  0  0  0
   -0.8553   -0.7248    0.6244 C   0  0  0  0  0  0  0  0  0  0  0  0
   -1.2261   -2.0677    0.5763 C   0  0  0  0  0  0  0  0  0  0  0  0
   -2.5265   -2.4129    0.2365 C   0  0  0  0  0  0  0  0  0  0  0  0
    0.3736   -0.2830    0.9584 O   0  0  0  0  0  0  0  0  0  0  0  0
    1.3528   -1.2283    1.3510 C   0  0  1  0  0  0  0  0  0  0  0  0
    2.0003   -1.9762    0.1676 C   0  0  0  0  0  0  0  0  0  0  0  0
    3.0998   -0.9102    0.1493 C   0  0  1  0  0  0  0  0  0  0  0  0
    2.6841   -0.5021    1.5786 C   0  0  0  0  0  0  0  0  0  0  0  0
    6.7352   -1.0277   -0.2605 C   0  0  0  0  0  0  0  0  0  0  0  0
    7.8232   -0.0383   -0.6658 C   0  0  2  0  0  0  0  0  0  0  0  0
    9.1719   -0.7371   -0.8307 C   0  0  0  0  0  0  0  0  0  0  0  0
   10.2633    0.2624   -1.1768 C   0  0  0  0  0  0  0  0  0  0  0  0
   10.3587    1.2923   -0.2157 O   0  0  0  0  0  0  0  0  0  0  0  0
    9.1510    2.0119   -0.0921 C   0  0  0  0  0  0  0  0  0  0  0  0
    7.9876    1.1223    0.3171 C   0  0  0  0  0  0  0  0  0  0  0  0
   -4.3542    3.3458   -0.4550 H   0  0  0  0  0  0  0  0  0  0  0  0
   -5.9032    3.9924   -0.9778 H   0  0  0  0  0  0  0  0  0  0  0  0
   -5.4761    2.2691    1.5011 H   0  0  0  0  0  0  0  0  0  0  0  0
   -7.0433    2.7998    0.9013 H   0  0  0  0  0  0  0  0  0  0  0  0
   -6.7990   -3.8727   -1.6290 H   0  0  0  0  0  0  0  0  0  0  0  0
   -6.7139    2.2594   -1.9786 H   0  0  0  0  0  0  0  0  0  0  0  0
   -6.9120    0.5185   -1.9701 H   0  0  0  0  0  0  0  0  0  0  0  0
   -8.0129    1.5314   -1.0207 H   0  0  0  0  0  0  0  0  0  0  0  0
   -7.3402    0.1186    0.9624 H   0  0  0  0  0  0  0  0  0  0  0  0
   -5.6493    0.1499    1.4396 H   0  0  0  0  0  0  0  0  0  0  0  0
   -8.1102   -1.9311   -0.6872 H   0  0  0  0  0  0  0  0  0  0  0  0
   -4.7295    4.5342    1.6257 H   0  0  0  0  0  0  0  0  0  0  0  0
   -4.5925    6.7735    0.9398 H   0  0  0  0  0  0  0  0  0  0  0  0
   -3.6497    5.7923   -0.1904 H   0  0  0  0  0  0  0  0  0  0  0  0
   -5.2769    6.3236   -0.6178 H   0  0  0  0  0  0  0  0  0  0  0  0
   -3.8194    0.6655   -0.2573 H   0  0  0  0  0  0  0  0  0  0  0  0
   -1.5219    1.2968    0.3561 H   0  0  0  0  0  0  0  0  0  0  0  0
   -0.5208   -2.8568    0.8002 H   0  0  0  0  0  0  0  0  0  0  0  0
   -2.7953   -3.4614    0.2129 H   0  0  0  0  0  0  0  0  0  0  0  0
    0.9754   -1.8387    2.1766 H   0  0  0  0  0  0  0  0  0  0  0  0
    2.3901   -2.9405    0.4981 H   0  0  0  0  0  0  0  0  0  0  0  0
    1.4106   -2.1214   -0.7380 H   0  0  0  0  0  0  0  0  0  0  0  0
    2.8645   -0.1099   -0.5654 H   0  0  0  0  0  0  0  0  0  0  0  0
    2.6390    0.5563    1.8364 H   0  0  0  0  0  0  0  0  0  0  0  0
    3.2790   -1.0285    2.3269 H   0  0  0  0  0  0  0  0  0  0  0  0
    5.1766    0.2774   -0.9822 H   0  0  0  0  0  0  0  0  0  0  0  0
    5.3249    0.2423    0.7754 H   0  0  0  0  0  0  0  0  0  0  0  0
    7.0119   -1.5132    0.6810 H   0  0  0  0  0  0  0  0  0  0  0  0
    6.6793   -1.8147   -1.0197 H   0  0  0  0  0  0  0  0  0  0  0  0
    7.5462    0.3867   -1.6405 H   0  0  0  0  0  0  0  0  0  0  0  0
    9.4334   -1.2550    0.0983 H   0  0  0  0  0  0  0  0  0  0  0  0
    9.1171   -1.4966   -1.6153 H   0  0  0  0  0  0  0  0  0  0  0  0
   11.2388   -0.2260   -1.2179 H   0  0  0  0  0  0  0  0  0  0  0  0
   10.0675    0.6891   -2.1722 H   0  0  0  0  0  0  0  0  0  0  0  0
    9.3207    2.7938    0.6504 H   0  0  0  0  0  0  0  0  0  0  0  0
    8.9073    2.5092   -1.0433 H   0  0  0  0  0  0  0  0  0  0  0  0
    7.0837    1.7356    0.3592 H   0  0  0  0  0  0  0  0  0  0  0  0
    8.1558    0.7299    1.3264 H   0  0  0  0  0  0  0  0  0  0  0  0
    5.3667   -0.3859   -0.1244 C   0  0  0  0  0  0  0  0  0  0  0  0
 13 12  1  0
 25 70  1  0
 25 26  1  0
 70  2  1  0
 12  1  1  0
 22 21  1  0
 22 23  1  0
 30 31  1  0
 30 29  1  0
 31 26  1  0
  2 23  1  0
 21 24  1  0
 21 20  1  0
 26 27  1  0
  1  3  1  0
 23 24  1  0
 29 28  1  0
 28 27  1  0
 20 17  1  0
  3 11  1  0
 16 17  1  0
 16 15  2  0
 17 18  2  0
 15 10  1  0
  5 11  1  0
 11  6  1  0
  6  7  1  0
 18 19  1  0
 10 19  2  0
 10  9  1  0
  7  9  1  0
  7  8  2  0
  9 14  2  0
  8  4  1  0
 14  4  1  0
  1 32  1  0
  1 33  1  0
  3 34  1  0
  3 35  1  0
  4 36  1  0
  5 37  1  0
  5 38  1  0
  5 39  1  0
  6 40  1  0
  6 41  1  0
  8 42  1  0
 12 43  1  0
 13 44  1  0
 13 45  1  0
 13 46  1  0
 15 47  1  0
 16 48  1  0
 18 49  1  0
 19 50  1  0
 21 51  1  1
 22 52  1  0
 22 53  1  0
 23 54  1  6
 24 55  1  0
 24 56  1  0
 70 57  1  0
 70 58  1  0
 25 59  1  0
 25 60  1  0
 26 61  1  6
 27 62  1  0
 27 63  1  0
 28 64  1  0
 28 65  1  0
 30 66  1  0
 30 67  1  0
 31 68  1  0
 31 69  1  0
M  END
