
     RDKit          3D

 34 37  0  0  0  0  0  0  0  0999 V2000
   -1.4613   -0.2097    0.4275 N   0  0  0  0  0  0  0  0  0  0  0  0
    1.7490    4.9223    0.3362 N   0  0  0  0  0  0  0  0  0  0  0  0
   -4.6990   -2.6855    0.4582 C   0  0  0  0  0  0  0  0  0  0  0  0
   -1.6205    1.0254    0.0165 C   0  0  0  0  0  0  0  0  0  0  0  0
   -2.8861    1.5350   -0.3860 C   0  0  0  0  0  0  0  0  0  0  0  0
   -3.9764    0.7182   -0.3567 C   0  0  0  0  0  0  0  0  0  0  0  0
   -0.4398    1.8819   -0.0154 C   0  0  0  0  0  0  0  0  0  0  0  0
    0.8862    1.5755   -0.1690 C   0  0  0  0  0  0  0  0  0  0  0  0
    3.2003   -1.3684   -0.1598 C   0  0  0  0  0  0  0  0  0  0  0  0
    1.4477   -1.8057   -1.7472 C   0  0  0  0  0  0  0  0  0  0  0  0
    4.6490   -1.8808    0.6208 Cl  0  0  0  0  0  0  0  0  0  0  0  0
    2.6321   -0.1406    0.1357 C   0  0  0  0  0  0  0  0  0  0  0  0
    2.6025   -2.1931   -1.0968 C   0  0  0  0  0  0  0  0  0  0  0  0
    3.1603   -3.3717   -1.3794 F   0  0  0  0  0  0  0  0  0  0  0  0
    0.8782   -0.5821   -1.4430 C   0  0  0  0  0  0  0  0  0  0  0  0
    1.4539    0.2565   -0.4908 C   0  0  0  0  0  0  0  0  0  0  0  0
    1.7595    2.6144   -0.0323 N   0  0  0  0  0  0  0  0  0  0  0  0
    1.1404    3.7337    0.2075 C   0  0  0  0  0  0  0  0  0  0  0  0
   -0.5894    3.5943    0.2845 S   0  0  0  0  0  0  0  0  0  0  0  0
   -3.8224   -0.6232    0.0576 C   0  0  0  0  0  0  0  0  0  0  0  0
   -2.5237   -1.0364    0.4364 C   0  0  0  0  0  0  0  0  0  0  0  0
   -2.3571   -2.3788    0.8438 C   0  0  0  0  0  0  0  0  0  0  0  0
   -3.4461   -3.2029    0.8517 C   0  0  0  0  0  0  0  0  0  0  0  0
   -4.8900   -1.4499    0.0756 N   0  0  0  0  0  0  0  0  0  0  0  0
    2.7494    4.9193    0.4513 H   0  0  0  0  0  0  0  0  0  0  0  0
    1.2627    5.7012    0.7459 H   0  0  0  0  0  0  0  0  0  0  0  0
   -5.5678   -3.3347    0.4660 H   0  0  0  0  0  0  0  0  0  0  0  0
   -2.9820    2.5565   -0.7312 H   0  0  0  0  0  0  0  0  0  0  0  0
   -4.9532    1.0728   -0.6591 H   0  0  0  0  0  0  0  0  0  0  0  0
    1.0047   -2.4547   -2.4907 H   0  0  0  0  0  0  0  0  0  0  0  0
    3.1067    0.5038    0.8632 H   0  0  0  0  0  0  0  0  0  0  0  0
   -0.0153   -0.2774   -1.9690 H   0  0  0  0  0  0  0  0  0  0  0  0
   -1.3739   -2.7249    1.1351 H   0  0  0  0  0  0  0  0  0  0  0  0
   -3.3667   -4.2384    1.1526 H   0  0  0  0  0  0  0  0  0  0  0  0
  2 18  1  0
 19 18  1  0
 19  7  1  0
 18 17  2  0
  7  4  1  0
  7  8  2  0
 17  8  1  0
  4  1  2  0
  4  5  1  0
  1 21  1  0
  5  6  2  0
 21 22  2  0
 21 20  1  0
  6 20  1  0
 22 23  1  0
 20 24  2  0
 23  3  2  0
 24  3  1  0
  8 16  1  0
 12 16  1  0
 12  9  2  0
 16 15  2  0
 11  9  1  0
  9 13  1  0
 15 10  1  0
 13 10  2  0
 13 14  1  0
  2 25  1  0
  2 26  1  0
  3 27  1  0
  5 28  1  0
  6 29  1  0
 10 30  1  0
 12 31  1  0
 15 32  1  0
 22 33  1  0
 23 34  1  0
M  END
