
     RDKit          3D

 28 29  0  0  0  0  0  0  0  0999 V2000
   -2.8934    2.9732   -1.1714 C   0  0  0  0  0  0  0  0  0  0  0  0
   -2.1693    1.8279   -0.6512 N   0  0  0  0  0  0  0  0  0  0  0  0
   -0.8712    1.7468   -0.8589 N   0  0  0  0  0  0  0  0  0  0  0  0
   -0.4736    0.5944   -0.3505 C   0  0  0  0  0  0  0  0  0  0  0  0
   -1.5668   -0.0878    0.2069 C   0  0  0  0  0  0  0  0  0  0  0  0
   -1.4776   -1.6955    1.1242 Br  0  0  0  0  0  0  0  0  0  0  0  0
   -2.6490    0.7381   -0.0133 C   0  0  0  0  0  0  0  0  0  0  0  0
   -4.0886    0.5881    0.3380 C   0  0  1  0  0  0  0  0  0  0  0  0
   -4.8721    0.7789   -0.7294 F   0  0  0  0  0  0  0  0  0  0  0  0
   -4.3505   -0.6220    0.8169 F   0  0  0  0  0  0  0  0  0  0  0  0
   -4.4670    1.4795    1.2616 F   0  0  0  0  0  0  0  0  0  0  0  0
    0.9418    0.2153   -0.3722 C   0  0  0  0  0  0  0  0  0  0  0  0
    1.9118    1.0574    0.1522 C   0  0  0  0  0  0  0  0  0  0  0  0
    3.2704    0.7492    0.1130 C   0  0  0  0  0  0  0  0  0  0  0  0
    4.2575    1.7292    0.6411 C   0  0  0  0  0  0  0  0  0  0  0  0
    3.7270    2.5104    1.5713 O   0  0  0  0  0  0  0  0  0  0  0  0
    5.3968    1.8203    0.2646 O   0  0  0  0  0  0  0  0  0  0  0  0
    3.6517   -0.4654   -0.4647 C   0  0  0  0  0  0  0  0  0  0  0  0
    5.2892   -0.9929   -0.5168 Cl  0  0  0  0  0  0  0  0  0  0  0  0
    2.7057   -1.3303   -0.9898 C   0  0  0  0  0  0  0  0  0  0  0  0
    1.3759   -0.9691   -0.9481 C   0  0  0  0  0  0  0  0  0  0  0  0
    0.4805   -1.7866   -1.4969 F   0  0  0  0  0  0  0  0  0  0  0  0
   -3.3860    2.7253   -2.1089 H   0  0  0  0  0  0  0  0  0  0  0  0
   -3.6266    3.3273   -0.4529 H   0  0  0  0  0  0  0  0  0  0  0  0
   -2.1696    3.7621   -1.3447 H   0  0  0  0  0  0  0  0  0  0  0  0
    1.5888    1.9878    0.5978 H   0  0  0  0  0  0  0  0  0  0  0  0
    4.3748    3.1738    1.8536 H   0  0  0  0  0  0  0  0  0  0  0  0
    2.9988   -2.2702   -1.4369 H   0  0  0  0  0  0  0  0  0  0  0  0
  1  2  1  0
  1 23  1  0
  1 24  1  0
  1 25  1  0
  2  3  1  0
  2  7  1  0
  3  4  2  0
  4  5  1  0
  4 12  1  0
  5  6  1  0
  5  7  2  0
  7  8  1  0
  8  9  1  6
  8 10  1  0
  8 11  1  0
 12 13  2  0
 12 21  1  0
 13 14  1  0
 13 26  1  0
 14 15  1  0
 14 18  2  0
 15 16  1  0
 15 17  2  0
 16 27  1  0
 18 19  1  0
 18 20  1  0
 20 21  2  0
 20 28  1  0
 21 22  1  0
M  END
