
     RDKit          3D

 48 49  0  0  0  0  0  0  0  0999 V2000
    4.8266    2.6347    0.7681 I   0  0  0  0  0  0  0  0  0  0  0  0
    5.5396   -2.5832   -2.1692 I   0  0  0  0  0  0  0  0  0  0  0  0
   10.2232   -0.1007    0.6024 I   0  0  0  0  0  0  0  0  0  0  0  0
    3.4459   -0.9342    0.9362 O   0  0  0  0  0  0  0  0  0  0  0  0
    7.8904    1.9504    2.5941 O   0  0  0  0  0  0  0  0  0  0  0  0
    8.4846    3.1307    0.7826 O   0  0  0  0  0  0  0  0  0  0  0  0
    4.1359    0.0487   -0.9670 N   0  0  0  0  0  0  0  0  0  0  0  0
    7.3950    1.0363    0.5118 C   0  0  0  0  0  0  0  0  0  0  0  0
    6.0512    1.0456    0.1556 C   0  0  0  0  0  0  0  0  0  0  0  0
    5.4914    0.0241   -0.6127 C   0  0  0  0  0  0  0  0  0  0  0  0
    6.3229   -1.0178   -1.0189 C   0  0  0  0  0  0  0  0  0  0  0  0
    7.6662   -1.0499   -0.6799 C   0  0  0  0  0  0  0  0  0  0  0  0
    8.1897   -0.0217    0.0866 C   0  0  0  0  0  0  0  0  0  0  0  0
    3.1747   -0.4692   -0.1530 C   0  0  0  0  0  0  0  0  0  0  0  0
    1.7830   -0.4312   -0.7329 C   0  0  0  0  0  0  0  0  0  0  0  0
    0.6863   -0.4360    0.3205 C   0  0  0  0  0  0  0  0  0  0  0  0
   -0.6980   -0.4397   -0.3151 C   0  0  0  0  0  0  0  0  0  0  0  0
   -3.4564   -0.9499   -0.9282 O   0  0  0  0  0  0  0  0  0  0  0  0
   -7.9137    1.9715   -2.5673 O   0  0  0  0  0  0  0  0  0  0  0  0
   -8.5089    3.1257   -0.7396 O   0  0  0  0  0  0  0  0  0  0  0  0
   -4.1486    0.0409    0.9701 N   0  0  0  0  0  0  0  0  0  0  0  0
   -7.4117    1.0322   -0.4975 C   0  0  0  0  0  0  0  0  0  0  0  0
   -6.0676    1.0420   -0.1423 C   0  0  0  0  0  0  0  0  0  0  0  0
   -5.5038    0.0143    0.6145 C   0  0  0  0  0  0  0  0  0  0  0  0
   -6.3311   -1.0355    1.0090 C   0  0  0  0  0  0  0  0  0  0  0  0
   -7.6739   -1.0698    0.6684 C   0  0  0  0  0  0  0  0  0  0  0  0
   -8.2021   -0.0339   -0.0848 C   0  0  0  0  0  0  0  0  0  0  0  0
   -3.1863   -0.4790    0.1587 C   0  0  0  0  0  0  0  0  0  0  0  0
   -1.7947   -0.4356    0.7384 C   0  0  0  0  0  0  0  0  0  0  0  0
    8.2743    2.6879    3.0959 H   0  0  0  0  0  0  0  0  0  0  0  0
    3.8822    0.4147   -1.8735 H   0  0  0  0  0  0  0  0  0  0  0  0
    8.2941   -1.8668   -1.0057 H   0  0  0  0  0  0  0  0  0  0  0  0
    1.6780    0.4371   -1.3885 H   0  0  0  0  0  0  0  0  0  0  0  0
    1.6806   -1.3077   -1.3831 H   0  0  0  0  0  0  0  0  0  0  0  0
    0.7945   -1.3105    0.9663 H   0  0  0  0  0  0  0  0  0  0  0  0
    0.7923    0.4407    0.9662 H   0  0  0  0  0  0  0  0  0  0  0  0
   -0.8074    0.4342   -0.9641 H   0  0  0  0  0  0  0  0  0  0  0  0
   -0.8030   -1.3171   -0.9576 H   0  0  0  0  0  0  0  0  0  0  0  0
   -8.2997    2.7148   -3.0589 H   0  0  0  0  0  0  0  0  0  0  0  0
   -3.8949    0.4185    1.8717 H   0  0  0  0  0  0  0  0  0  0  0  0
   -8.2986   -1.8932    0.9837 H   0  0  0  0  0  0  0  0  0  0  0  0
   -1.6902   -1.3105    1.3905 H   0  0  0  0  0  0  0  0  0  0  0  0
   -1.6917    0.4344    1.3922 H   0  0  0  0  0  0  0  0  0  0  0  0
    7.9876    2.1679    1.2990 C   0  0  0  0  0  0  0  0  0  0  0  0
   -8.0092    2.1717   -1.2695 C   0  0  0  0  0  0  0  0  0  0  0  0
   -4.8481    2.6401   -0.7408 I   0  0  0  0  0  0  0  0  0  0  0  0
   -5.5427   -2.6082    2.1458 I   0  0  0  0  0  0  0  0  0  0  0  0
  -10.2355   -0.1143   -0.6000 I   0  0  0  0  0  0  0  0  0  0  0  0
  1  9  1  0
  2 11  1  0
  3 13  1  0
  4 14  2  0
  5 44  1  0
  5 30  1  0
  6 44  2  0
  7 10  1  0
  7 14  1  0
  7 31  1  0
  8  9  2  0
  8 13  1  0
  8 44  1  0
  9 10  1  0
 10 11  2  0
 11 12  1  0
 12 13  2  0
 12 32  1  0
 14 15  1  0
 15 16  1  0
 15 33  1  0
 15 34  1  0
 16 17  1  0
 16 35  1  0
 16 36  1  0
 17 29  1  0
 17 37  1  0
 17 38  1  0
 46 23  1  0
 47 25  1  0
 48 27  1  0
 18 28  2  0
 19 45  1  0
 19 39  1  0
 20 45  2  0
 21 24  1  0
 21 28  1  0
 21 40  1  0
 22 23  2  0
 22 27  1  0
 22 45  1  0
 23 24  1  0
 24 25  2  0
 25 26  1  0
 26 27  2  0
 26 41  1  0
 28 29  1  0
 29 42  1  0
 29 43  1  0
M  END
