
     RDKit          3D

 52 55  0  0  0  0  0  0  0  0999 V2000
   -3.0903    1.2362    0.1911 N   0  0  0  0  0  0  0  0  0  0  0  0
   -1.8328    1.7296    0.3999 C   0  0  0  0  0  0  0  0  0  0  0  0
   -0.7153    0.8456    0.2440 C   0  0  0  0  0  0  0  0  0  0  0  0
   -3.2894   -0.0872   -0.1731 C   0  0  0  0  0  0  0  0  0  0  0  0
   -0.8970   -0.4062   -0.0855 N   0  0  0  0  0  0  0  0  0  0  0  0
   -2.1657   -0.8413   -0.2885 C   0  0  0  0  0  0  0  0  0  0  0  0
   -1.8524    2.9935    0.7635 N   0  0  0  0  0  0  0  0  0  0  0  0
   -4.6463   -0.5879   -0.4286 C   0  0  0  0  0  0  0  0  0  0  0  0
    0.4974    1.3924    0.4634 N   0  0  0  0  0  0  0  0  0  0  0  0
   -3.9562    2.2598    0.4514 C   0  0  0  0  0  0  0  0  0  0  0  0
   -3.1638    3.3262    0.7962 C   0  0  0  0  0  0  0  0  0  0  0  0
    4.4719   -0.1083    0.2934 C   0  0  0  0  0  0  0  0  0  0  0  0
   -5.0601   -1.7663    0.1847 C   0  0  0  0  0  0  0  0  0  0  0  0
    5.7670   -0.5587    0.2333 N   0  0  0  0  0  0  0  0  0  0  0  0
    1.7769    0.8326    0.3941 C   0  0  0  0  0  0  0  0  0  0  0  0
    3.3758   -0.9375    0.0009 C   0  0  0  0  0  0  0  0  0  0  0  0
    4.1597    1.2192    0.6463 C   0  0  0  0  0  0  0  0  0  0  0  0
   -6.3254   -2.2889   -0.0736 C   0  0  0  0  0  0  0  0  0  0  0  0
    2.0655   -0.4865    0.0515 C   0  0  0  0  0  0  0  0  0  0  0  0
    2.8549    1.6682    0.6900 C   0  0  0  0  0  0  0  0  0  0  0  0
   -6.6642   -3.4304    0.5546 O   0  0  0  0  0  0  0  0  0  0  0  0
   -5.5100    0.0779   -1.3016 C   0  0  0  0  0  0  0  0  0  0  0  0
    7.1157   -1.5689   -2.1477 O   0  0  0  0  0  0  0  0  0  0  0  0
   -6.7690   -0.4448   -1.5464 C   0  0  0  0  0  0  0  0  0  0  0  0
    6.0652   -1.9456   -0.0408 C   0  0  0  0  0  0  0  0  0  0  0  0
    6.8833    0.3152    0.5305 C   0  0  0  0  0  0  0  0  0  0  0  0
   -7.1862   -1.6216   -0.9404 C   0  0  0  0  0  0  0  0  0  0  0  0
    6.0847   -2.2955   -1.5188 C   0  0  0  0  0  0  0  0  0  0  0  0
    7.1705    0.4555    2.0206 C   0  0  0  0  0  0  0  0  0  0  0  0
   -2.2666   -1.8773   -0.5862 H   0  0  0  0  0  0  0  0  0  0  0  0
    0.4718    2.3700    0.7153 H   0  0  0  0  0  0  0  0  0  0  0  0
   -5.0246    2.1573    0.3824 H   0  0  0  0  0  0  0  0  0  0  0  0
   -3.4947    4.3168    1.0671 H   0  0  0  0  0  0  0  0  0  0  0  0
   -4.4061   -2.2768    0.8810 H   0  0  0  0  0  0  0  0  0  0  0  0
    3.5225   -1.9692   -0.2851 H   0  0  0  0  0  0  0  0  0  0  0  0
    4.9365    1.9257    0.9023 H   0  0  0  0  0  0  0  0  0  0  0  0
    1.2706   -1.1755   -0.1842 H   0  0  0  0  0  0  0  0  0  0  0  0
    2.6752    2.7015    0.9660 H   0  0  0  0  0  0  0  0  0  0  0  0
   -7.5685   -3.6807    0.3347 H   0  0  0  0  0  0  0  0  0  0  0  0
   -5.1959    0.9824   -1.8057 H   0  0  0  0  0  0  0  0  0  0  0  0
    7.0603   -1.7268   -3.0942 H   0  0  0  0  0  0  0  0  0  0  0  0
   -7.4373    0.0650   -2.2277 H   0  0  0  0  0  0  0  0  0  0  0  0
    7.0386   -2.1786    0.3962 H   0  0  0  0  0  0  0  0  0  0  0  0
    5.3550   -2.6058    0.4642 H   0  0  0  0  0  0  0  0  0  0  0  0
    7.7620   -0.0854    0.0270 H   0  0  0  0  0  0  0  0  0  0  0  0
    6.7181    1.2970    0.0809 H   0  0  0  0  0  0  0  0  0  0  0  0
   -8.1759   -2.0151   -1.1419 H   0  0  0  0  0  0  0  0  0  0  0  0
    5.1076   -2.0691   -1.9631 H   0  0  0  0  0  0  0  0  0  0  0  0
    6.2339   -3.3796   -1.6111 H   0  0  0  0  0  0  0  0  0  0  0  0
    8.0168    1.1242    2.1842 H   0  0  0  0  0  0  0  0  0  0  0  0
    6.3156    0.8607    2.5628 H   0  0  0  0  0  0  0  0  0  0  0  0
    7.4187   -0.5112    2.4618 H   0  0  0  0  0  0  0  0  0  0  0  0
 24 22  2  0
 24 27  1  0
 22  8  1  0
 27 18  2  0
 29 26  1  0
  8  4  1  0
  8 13  2  0
 18 13  1  0
 18 21  1  0
  6  4  2  0
  6  5  1  0
 26 14  1  0
  4  1  1  0
  5  3  2  0
 16 19  1  0
 16 12  2  0
 19 15  2  0
 14 12  1  0
 14 25  1  0
  1 10  1  0
  1  2  1  0
 12 17  1  0
  3  2  1  0
  3  9  1  0
 10 11  2  0
  2  7  2  0
 15  9  1  0
 15 20  1  0
 28 25  1  0
 28 23  1  0
 17 20  2  0
 11  7  1  0
  6 30  1  0
  9 31  1  0
 10 32  1  0
 11 33  1  0
 13 34  1  0
 16 35  1  0
 17 36  1  0
 19 37  1  0
 20 38  1  0
 21 39  1  0
 22 40  1  0
 23 41  1  0
 24 42  1  0
 25 43  1  0
 25 44  1  0
 26 45  1  0
 26 46  1  0
 27 47  1  0
 28 48  1  0
 28 49  1  0
 29 50  1  0
 29 51  1  0
 29 52  1  0
M  END
