
     RDKit          3D

 40 41  0  0  0  0  0  0  0  0999 V2000
    4.9293   -1.2961    0.2693 C   0  0  0  0  0  0  0  0  0  0  0  0
    2.9329   -3.5573    0.0904 O   0  0  0  0  0  0  0  0  0  0  0  0
   -2.5707    2.1414   -0.2733 O   0  0  0  0  0  0  0  0  0  0  0  0
    0.1325    3.8404   -0.3566 O   0  0  0  0  0  0  0  0  0  0  0  0
    1.2969   -2.7436    1.3791 O   0  0  0  0  0  0  0  0  0  0  0  0
   -5.3126   -2.0352   -0.0268 C   0  0  0  0  0  0  0  0  0  0  0  0
   -5.5509   -0.7992   -0.6143 C   0  0  0  0  0  0  0  0  0  0  0  0
   -4.0721   -2.3071    0.5338 C   0  0  0  0  0  0  0  0  0  0  0  0
   -4.5532    0.1619   -0.6396 C   0  0  0  0  0  0  0  0  0  0  0  0
   -3.0680   -1.3511    0.4986 C   0  0  0  0  0  0  0  0  0  0  0  0
    3.9141    0.4809   -1.1228 C   0  0  0  0  0  0  0  0  0  0  0  0
    1.4013   -0.5697   -0.1275 N   0  0  0  0  0  0  0  0  0  0  0  0
   -0.9821    0.5660   -0.0491 N   0  0  0  0  0  0  0  0  0  0  0  0
    0.5313    1.7336    1.3524 O   0  0  0  0  0  0  0  0  0  0  0  0
    2.8326    1.7667   -0.4305 S   0  0  0  0  0  0  0  0  0  0  0  0
    3.8390   -0.7315   -0.2506 C   0  0  0  0  0  0  0  0  0  0  0  0
    2.2813   -2.6375    0.5103 C   0  0  0  0  0  0  0  0  0  0  0  0
   -2.2690    0.9642   -0.1417 C   0  0  0  0  0  0  0  0  0  0  0  0
   -0.1397    2.7433   -0.7593 C   0  0  0  0  0  0  0  0  0  0  0  0
    2.4778   -1.2122    0.0462 C   0  0  0  0  0  0  0  0  0  0  0  0
   -3.3002   -0.1101   -0.0932 C   0  0  0  0  0  0  0  0  0  0  0  0
    1.3297    0.7649   -0.6320 C   0  0  2  0  0  0  0  0  0  0  0  0
    0.1301    1.4688    0.0530 C   0  0  2  0  0  0  0  0  0  0  0  0
    5.9091   -0.8875    0.0594 H   0  0  0  0  0  0  0  0  0  0  0  0
    4.8999   -2.1611    0.9155 H   0  0  0  0  0  0  0  0  0  0  0  0
   -0.9421    3.0949    1.9669 H   0  0  0  0  0  0  0  0  0  0  0  0
   -1.2169    1.4058    2.4464 H   0  0  0  0  0  0  0  0  0  0  0  0
    0.0654    2.3450    3.2116 H   0  0  0  0  0  0  0  0  0  0  0  0
    1.1654   -3.6740    1.6198 H   0  0  0  0  0  0  0  0  0  0  0  0
   -6.0937   -2.7834   -0.0019 H   0  0  0  0  0  0  0  0  0  0  0  0
   -6.5163   -0.5824   -1.0521 H   0  0  0  0  0  0  0  0  0  0  0  0
   -3.8840   -3.2627    1.0046 H   0  0  0  0  0  0  0  0  0  0  0  0
   -4.7461    1.1248   -1.0934 H   0  0  0  0  0  0  0  0  0  0  0  0
   -2.1188   -1.5883    0.9635 H   0  0  0  0  0  0  0  0  0  0  0  0
    3.6006    0.2607   -2.1457 H   0  0  0  0  0  0  0  0  0  0  0  0
    4.9248    0.8838   -1.1576 H   0  0  0  0  0  0  0  0  0  0  0  0
   -0.7422   -0.4141    0.0178 H   0  0  0  0  0  0  0  0  0  0  0  0
   -0.4777    2.5564   -1.7927 H   0  0  0  0  0  0  0  0  0  0  0  0
    1.1064    0.6872   -1.7029 H   0  0  0  0  0  0  0  0  0  0  0  0
   -0.4535    2.1685    2.2716 C   0  0  0  0  0  0  0  0  0  0  0  0
  1 16  2  0
  1 24  1  0
  1 25  1  0
 40 14  1  0
 40 26  1  0
 40 27  1  0
 40 28  1  0
  2 17  2  0
  3 18  2  0
  4 19  2  0
 17  5  1  0
  5 29  1  0
  6  8  2  0
  6  7  1  0
  6 30  1  0
  7  9  2  0
  7 31  1  0
  8 10  1  0
  8 32  1  0
  9 21  1  0
  9 33  1  0
 10 21  2  0
 10 34  1  0
 16 11  1  0
 11 15  1  0
 11 35  1  0
 11 36  1  0
 20 12  2  0
 12 22  1  0
 18 13  1  0
 13 23  1  0
 13 37  1  0
 23 14  1  1
 22 15  1  0
 16 20  1  0
 17 20  1  0
 21 18  1  0
 19 23  1  0
 19 38  1  0
 23 22  1  0
 22 39  1  6
M  END
