
     RDKit          3D

 58 61  0  0  0  0  0  0  0  0999 V2000
    2.9646    1.0847    1.9926 C   0  0  0  0  0  0  0  0  0  0  0  0
    1.0141    0.1787   -0.3447 C   0  0  0  0  0  0  0  0  0  0  0  0
   -1.0423   -1.0651   -0.1420 C   0  0  0  0  0  0  0  0  0  0  0  0
   -2.4697   -1.1985   -0.0542 C   0  0  0  0  0  0  0  0  0  0  0  0
   -4.6662   -0.0901   -0.0809 C   0  0  0  0  0  0  0  0  0  0  0  0
    0.9100    2.5153    2.0744 C   0  0  0  0  0  0  0  0  0  0  0  0
    2.2072    2.2252    1.3287 C   0  0  1  0  0  0  0  0  0  0  0  0
    3.0825    3.4732    1.2231 C   0  0  0  0  0  0  0  0  0  0  0  0
    1.7722    1.7897   -0.4010 S   0  0  1  0  0  0  0  0  0  0  0  0
    2.9934    1.7292   -1.2154 O   0  0  0  0  0  0  0  0  0  0  0  0
    0.7513    2.7307   -0.8581 O   0  0  0  0  0  0  0  0  0  0  0  0
   -0.3558    0.1491   -0.2619 C   0  0  0  0  0  0  0  0  0  0  0  0
   -3.2631   -0.1158   -0.1694 N   0  0  0  0  0  0  0  0  0  0  0  0
   -5.3460   -0.7621    0.9490 C   0  0  0  0  0  0  0  0  0  0  0  0
   -6.7195   -0.6908    1.0512 C   0  0  0  0  0  0  0  0  0  0  0  0
   -7.4172    0.0738    0.1217 C   0  0  0  0  0  0  0  0  0  0  0  0
   -9.1155    0.3641   -0.0165 S   0  0  0  0  0  0  0  0  0  0  0  0
   -8.7902    1.3635   -1.3970 C   0  0  0  0  0  0  0  0  0  0  0  0
   -7.5590    1.4869   -1.7412 N   0  0  0  0  0  0  0  0  0  0  0  0
   -6.7469    0.7651   -0.8973 C   0  0  0  0  0  0  0  0  0  0  0  0
   -5.3599    0.6744   -1.0017 C   0  0  0  0  0  0  0  0  0  0  0  0
   -3.0198   -2.3812    0.1323 N   0  0  0  0  0  0  0  0  0  0  0  0
   -2.2060   -3.4391    0.2048 C   0  0  0  0  0  0  0  0  0  0  0  0
   -0.9054   -3.4654    0.1021 N   0  0  0  0  0  0  0  0  0  0  0  0
   -0.3025   -2.2643   -0.0735 C   0  0  0  0  0  0  0  0  0  0  0  0
    1.0973   -2.2262   -0.1887 C   0  0  0  0  0  0  0  0  0  0  0  0
    1.7636   -1.0326   -0.3499 C   0  0  0  0  0  0  0  0  0  0  0  0
    3.0781   -0.9284   -0.5061 O   0  0  0  0  0  0  0  0  0  0  0  0
    3.9013   -2.0784   -0.3748 C   0  0  0  0  0  0  0  0  0  0  0  0
    5.2951   -1.6936   -0.7899 C   0  0  0  0  0  0  0  0  0  0  0  0
    5.7763   -0.6519    0.0596 O   0  0  0  0  0  0  0  0  0  0  0  0
    6.5371    0.6123   -0.5611 P   0  0  1  0  0  0  0  0  0  0  0  0
    6.5134    1.5029    0.7640 O   0  0  0  0  0  0  0  0  0  0  0  0
    7.8584    0.3551   -1.1667 O   0  0  0  0  0  0  0  0  0  0  0  0
    5.5607    1.2665   -1.6260 O   0  0  0  0  0  0  0  0  0  0  0  0
    2.3463    0.1967    2.1214 H   0  0  0  0  0  0  0  0  0  0  0  0
    3.8721    0.8133    1.4606 H   0  0  0  0  0  0  0  0  0  0  0  0
    3.2592    1.4204    2.9875 H   0  0  0  0  0  0  0  0  0  0  0  0
    1.1601    2.7476    3.1100 H   0  0  0  0  0  0  0  0  0  0  0  0
    0.3759    3.3684    1.6608 H   0  0  0  0  0  0  0  0  0  0  0  0
    0.2409    1.6541    2.0918 H   0  0  0  0  0  0  0  0  0  0  0  0
    4.0440    3.2590    0.7590 H   0  0  0  0  0  0  0  0  0  0  0  0
    2.5945    4.2795    0.6763 H   0  0  0  0  0  0  0  0  0  0  0  0
    3.2794    3.8330    2.2333 H   0  0  0  0  0  0  0  0  0  0  0  0
   -0.8957    1.0866   -0.2741 H   0  0  0  0  0  0  0  0  0  0  0  0
   -2.8457    0.7321   -0.5176 H   0  0  0  0  0  0  0  0  0  0  0  0
   -4.7919   -1.3322    1.6793 H   0  0  0  0  0  0  0  0  0  0  0  0
   -7.2323   -1.2099    1.8493 H   0  0  0  0  0  0  0  0  0  0  0  0
   -9.6091    1.8420   -1.9175 H   0  0  0  0  0  0  0  0  0  0  0  0
   -4.8424    1.1954   -1.7977 H   0  0  0  0  0  0  0  0  0  0  0  0
   -2.7009   -4.3926    0.3592 H   0  0  0  0  0  0  0  0  0  0  0  0
    1.6250   -3.1694   -0.1542 H   0  0  0  0  0  0  0  0  0  0  0  0
    3.8752   -2.4422    0.6567 H   0  0  0  0  0  0  0  0  0  0  0  0
    3.5691   -2.8863   -1.0332 H   0  0  0  0  0  0  0  0  0  0  0  0
    5.9412   -2.5669   -0.6911 H   0  0  0  0  0  0  0  0  0  0  0  0
    5.2973   -1.3965   -1.8414 H   0  0  0  0  0  0  0  0  0  0  0  0
    7.0929    2.2758    0.7268 H   0  0  0  0  0  0  0  0  0  0  0  0
    4.6210    1.4119   -1.3673 H   0  0  0  0  0  0  0  0  0  0  0  0
 34 32  2  0
 32 33  1  1
 32 35  1  0
 32 31  1  0
 31 30  1  0
 30 29  1  0
 29 28  1  0
 28 27  1  0
 26 27  1  0
 26 25  2  0
 27  2  2  0
 10  9  2  0
 24 25  1  0
 24 23  2  0
 25  3  1  0
  7  8  1  6
  9  2  1  1
  2 12  1  0
  9  7  1  0
  9 11  2  0
 23 22  1  0
  7  1  1  0
  7  6  1  0
  3 12  2  0
  3  4  1  0
 22  4  2  0
  4 13  1  0
 13  5  1  0
 14  5  2  0
 14 15  1  0
  5 21  1  0
 15 16  2  0
 21 20  2  0
 16 20  1  0
 16 17  1  0
 20 19  1  0
 17 18  1  0
 19 18  2  0
  1 36  1  0
  1 37  1  0
  1 38  1  0
  6 39  1  0
  6 40  1  0
  6 41  1  0
  8 42  1  0
  8 43  1  0
  8 44  1  0
 12 45  1  0
 13 46  1  0
 14 47  1  0
 15 48  1  0
 18 49  1  0
 21 50  1  0
 23 51  1  0
 26 52  1  0
 29 53  1  0
 29 54  1  0
 30 55  1  0
 30 56  1  0
 33 57  1  0
 35 58  1  0
M  END
