
     RDKit          3D

 20 20  0  0  0  0  0  0  0  0999 V2000
    2.1330   -1.7440    0.1639 F   0  0  0  0  0  0  0  0  0  0  0  0
    1.3015   -0.6892    0.0902 C   0  0  0  0  0  0  0  0  0  0  0  0
    1.8572    0.5759   -0.0290 C   0  0  0  0  0  0  0  0  0  0  0  0
    0.9586    1.6385   -0.0861 C   0  0  0  0  0  0  0  0  0  0  0  0
   -0.4117    1.4396   -0.0277 C   0  0  0  0  0  0  0  0  0  0  0  0
   -0.9350    0.1548    0.0779 C   0  0  0  0  0  0  0  0  0  0  0  0
   -0.0565   -0.9252    0.1403 C   0  0  0  0  0  0  0  0  0  0  0  0
   -2.4098   -0.0425    0.1320 C   0  0  0  0  0  0  0  0  0  0  0  0
   -3.1350    0.9038    0.5900 N   0  0  0  0  0  0  0  0  0  0  0  0
   -2.8459   -1.2693   -0.2800 N   0  0  0  0  0  0  0  0  0  0  0  0
    3.3409    0.7718   -0.0910 C   0  0  0  0  0  0  0  0  0  0  0  0
    1.3451    2.6456   -0.1829 H   0  0  0  0  0  0  0  0  0  0  0  0
   -1.0835    2.2850   -0.0779 H   0  0  0  0  0  0  0  0  0  0  0  0
   -0.4111   -1.9427    0.2494 H   0  0  0  0  0  0  0  0  0  0  0  0
   -4.1224    0.6660    0.5438 H   0  0  0  0  0  0  0  0  0  0  0  0
   -2.3040   -1.7595   -0.9728 H   0  0  0  0  0  0  0  0  0  0  0  0
   -3.8404   -1.3934   -0.3865 H   0  0  0  0  0  0  0  0  0  0  0  0
    3.7878    0.2029   -0.9070 H   0  0  0  0  0  0  0  0  0  0  0  0
    3.5837    1.8213   -0.2454 H   0  0  0  0  0  0  0  0  0  0  0  0
    3.8265    0.4491    0.8313 H   0  0  0  0  0  0  0  0  0  0  0  0
  1  2  1  0
  2  3  2  0
  2  7  1  0
  3  4  1  0
  3 11  1  0
  4  5  2  0
  5  6  1  0
  6  7  2  0
  6  8  1  0
  8  9  2  0
  8 10  1  0
  4 12  1  0
  5 13  1  0
  7 14  1  0
  9 15  1  0
 10 16  1  0
 10 17  1  0
 11 18  1  0
 11 19  1  0
 11 20  1  0
M  END
