
     RDKit          3D

 33 33  0  0  0  0  0  0  0  0999 V2000
   -0.2328   -0.3458    0.3548 C   0  0  0  0  0  0  0  0  0  0  0  0
    0.3790    0.8833    0.1502 C   0  0  0  0  0  0  0  0  0  0  0  0
   -1.5833   -0.5314    0.1036 C   0  0  0  0  0  0  0  0  0  0  0  0
   -1.7437    1.7607   -0.6074 C   0  0  0  0  0  0  0  0  0  0  0  0
    2.1633    1.9343    1.3083 O   0  0  0  0  0  0  0  0  0  0  0  0
    1.8214    1.0649    0.5240 C   0  0  0  0  0  0  0  0  0  0  0  0
    2.6550    0.1849   -0.0390 N   0  0  0  0  0  0  0  0  0  0  0  0
    4.0811    0.1729    0.2243 C   0  0  0  0  0  0  0  0  0  0  0  0
    4.7018   -1.1435   -0.2123 C   0  0  0  0  0  0  0  0  0  0  0  0
    6.2050   -1.1707    0.0365 C   0  0  0  0  0  0  0  0  0  0  0  0
    6.8417   -2.4827   -0.3984 C   0  0  0  0  0  0  0  0  0  0  0  0
   -0.3959    1.9304   -0.3363 C   0  0  0  0  0  0  0  0  0  0  0  0
    0.3049    3.4661   -0.6659 Cl  0  0  0  0  0  0  0  0  0  0  0  0
   -2.3400    0.5324   -0.3800 C   0  0  0  0  0  0  0  0  0  0  0  0
   -4.0193    0.3864   -0.7056 Cl  0  0  0  0  0  0  0  0  0  0  0  0
   -2.2824   -2.1450    0.3823 S   0  0  1  0  0  0  0  0  0  0  0  0
   -3.0326   -2.5436   -0.7944 O   0  0  0  0  0  0  0  0  0  0  0  0
   -1.1935   -2.9908    0.8430 O   0  0  0  0  0  0  0  0  0  0  0  0
   -3.3657   -1.8382    1.5731 N   0  0  0  0  0  0  0  0  0  0  0  0
    0.3551   -1.1690    0.7385 H   0  0  0  0  0  0  0  0  0  0  0  0
   -2.3296    2.5826   -0.9940 H   0  0  0  0  0  0  0  0  0  0  0  0
    2.3041   -0.4149   -0.7699 H   0  0  0  0  0  0  0  0  0  0  0  0
    4.5675    1.0057   -0.2936 H   0  0  0  0  0  0  0  0  0  0  0  0
    4.2407    0.3252    1.2930 H   0  0  0  0  0  0  0  0  0  0  0  0
    4.2232   -1.9679    0.3248 H   0  0  0  0  0  0  0  0  0  0  0  0
    4.5081   -1.3076   -1.2776 H   0  0  0  0  0  0  0  0  0  0  0  0
    6.6753   -0.3388   -0.4962 H   0  0  0  0  0  0  0  0  0  0  0  0
    6.3990   -1.0012    1.0995 H   0  0  0  0  0  0  0  0  0  0  0  0
    6.4033   -3.3286    0.1338 H   0  0  0  0  0  0  0  0  0  0  0  0
    6.6982   -2.6548   -1.4667 H   0  0  0  0  0  0  0  0  0  0  0  0
    7.9144   -2.4887   -0.2042 H   0  0  0  0  0  0  0  0  0  0  0  0
   -2.9747   -1.8949    2.5066 H   0  0  0  0  0  0  0  0  0  0  0  0
   -4.2196   -2.3770    1.4826 H   0  0  0  0  0  0  0  0  0  0  0  0
 15 14  1  0
 13 12  1  0
  4 14  2  0
  4 12  1  0
 14  3  1  0
 12  2  2  0
  3  1  2  0
  3 16  1  0
  2  1  1  0
  2  6  1  0
 10  9  1  0
 10 11  1  0
 17 16  2  0
  7  6  1  0
  7  8  1  0
  9  8  1  0
  6  5  2  0
 16 18  2  0
 16 19  1  1
  1 20  1  0
  4 21  1  0
  7 22  1  0
  8 23  1  0
  8 24  1  0
  9 25  1  0
  9 26  1  0
 10 27  1  0
 10 28  1  0
 11 29  1  0
 11 30  1  0
 11 31  1  0
 19 32  1  0
 19 33  1  0
M  END
