
     RDKit          3D

 13 12  0  0  0  0  0  0  0  0999 V2000
    0.6657   -0.2503   -1.8325 O   0  0  0  0  0  0  0  0  0  0  0  0
   -0.5414    0.2369   -1.2925 C   0  0  0  0  0  0  0  0  0  0  0  0
   -0.6971   -0.2546    0.1238 C   0  0  0  0  0  0  0  0  0  0  0  0
    0.3064    0.2967    0.9380 O   0  0  0  0  0  0  0  0  0  0  0  0
    0.2192   -0.1403    2.2688 C   0  0  0  0  0  0  0  0  0  0  0  0
    0.7258    0.0473   -2.7444 H   0  0  0  0  0  0  0  0  0  0  0  0
   -1.4142   -0.1149   -1.8571 H   0  0  0  0  0  0  0  0  0  0  0  0
   -0.5789    1.3342   -1.3032 H   0  0  0  0  0  0  0  0  0  0  0  0
   -0.6604   -1.3541    0.1447 H   0  0  0  0  0  0  0  0  0  0  0  0
   -1.6968    0.0349    0.4780 H   0  0  0  0  0  0  0  0  0  0  0  0
    1.0260    0.3274    2.8325 H   0  0  0  0  0  0  0  0  0  0  0  0
   -0.7338    0.1390    2.7351 H   0  0  0  0  0  0  0  0  0  0  0  0
    0.3260   -1.2288    2.3546 H   0  0  0  0  0  0  0  0  0  0  0  0
  1  2  1  0
  1  6  1  0
  2  3  1  0
  2  7  1  0
  2  8  1  0
  3  4  1  0
  3  9  1  0
  3 10  1  0
  4  5  1  0
  5 11  1  0
  5 12  1  0
  5 13  1  0
M  END
